# File generated by Flopy version 3.3.4 on 06/28/2022 at 17:20:26.
BEGIN options
END options

BEGIN timing
  TDIS6  Stampriet.tdis
END timing

BEGIN models
  gwf6  Stampriet.nam  Stampriet
END models

BEGIN exchanges
END exchanges

BEGIN solutiongroup  1
  ims6  Stampriet.ims  Stampriet
END solutiongroup  1

