# File generated by Flopy version 3.3.4 on 06/28/2022 at 17:20:36.
BEGIN griddata
  strt
    INTERNAL  FACTOR  1.0
      1192.00000000    1186.00000000    1183.00000000    1173.00000000    1168.00000000    1167.00000000    1164.00000000    1160.00000000    1158.00000000    1145.00000000    1142.00000000    1141.00000000    1139.00000000    1209.00000000    1205.00000000    1202.00000000    1199.00000000    1194.00000000    1188.00000000    1181.00000000
      1177.00000000    1173.00000000    1172.00000000    1170.00000000    1161.00000000    1147.00000000    1158.00000000    1161.00000000    1148.00000000    1144.00000000    1141.00000000    1120.00000000    1113.00000000    1107.00000000    1099.00000000    1093.00000000    1231.00000000    1222.00000000    1218.00000000    1216.00000000
      1213.00000000    1208.50000000    1204.00000000    1198.00000000    1192.00000000    1190.00000000    1184.00000000    1178.00000000    1176.00000000    1165.00000000    1163.00000000    1166.00000000    1157.00000000    1158.50000000    1153.00000000    1150.00000000    1147.00000000    1138.00000000    1128.00000000    1118.00000000
      1095.00000000    1106.00000000    1102.00000000    1243.50000000    1239.50000000    1235.00000000    1230.50000000    1226.00000000    1221.50000000    1217.00000000    1212.00000000    1207.50000000    1203.00000000    1198.50000000    1194.00000000    1189.50000000    1185.50000000    1181.50000000    1177.50000000    1166.00000000
      1169.00000000    1165.50000000    1161.50000000    1157.50000000    1154.00000000    1150.50000000    1147.00000000    1144.00000000    1129.00000000    1129.00000000    1116.00000000    1115.00000000    1114.00000000    1439.00000000    1433.00000000    1422.00000000    1411.00000000    1392.00000000    1392.00000000    1253.50000000
      1252.00000000    1249.50000000    1247.00000000    1242.50000000    1238.00000000    1234.00000000    1229.00000000    1225.00000000    1220.00000000    1216.00000000    1211.00000000    1206.50000000    1202.00000000    1197.00000000    1193.00000000    1188.50000000    1184.50000000    1180.00000000    1176.00000000    1172.00000000
      1167.50000000    1163.50000000    1160.00000000    1156.50000000    1152.50000000    1149.50000000    1146.00000000    1143.00000000    1140.50000000    1134.00000000    1129.00000000    1131.00000000    1126.00000000    1360.00000000    1449.00000000    1450.00000000    1453.00000000    1432.00000000    1414.00000000    1404.00000000
      1396.00000000    1386.00000000    1377.00000000    1375.00000000    1276.00000000    1275.00000000    1274.00000000    1273.50000000    1270.00000000    1267.00000000    1264.00000000    1261.00000000    1258.50000000    1255.50000000    1253.50000000    1294.00000000    1249.50000000    1247.00000000    1244.00000000    1240.50000000
      1236.00000000    1232.00000000    1227.50000000    1223.00000000    1218.50000000    1214.00000000    1210.00000000    1205.00000000    1200.50000000    1196.00000000    1191.50000000    1187.00000000    1183.00000000    1179.00000000    1174.00000000    1170.00000000    1166.00000000    1162.50000000    1158.50000000    1154.50000000
      1151.50000000    1148.00000000    1145.00000000    1142.00000000    1139.00000000    1137.00000000    1134.00000000    1131.50000000    1129.50000000    1359.00000000    1361.50000000    1433.00000000    1459.00000000    1480.00000000    1454.00000000    1419.00000000    1401.00000000    1389.00000000    1346.00000000    1339.50000000
      1332.00000000    1325.00000000    1317.50000000    1311.00000000    1301.00000000    1298.00000000    1290.00000000    1283.00000000    1281.00000000    1278.00000000    1274.00000000    1270.00000000    1266.50000000    1263.50000000    1261.00000000    1258.00000000    1255.00000000    1253.00000000    1250.50000000    1291.00000000
      1289.00000000    1244.00000000    1241.00000000    1237.50000000    1233.50000000    1229.50000000    1225.50000000    1221.00000000    1216.50000000    1212.00000000    1208.00000000    1203.50000000    1199.00000000    1194.00000000    1190.00000000    1185.50000000    1181.00000000    1177.00000000    1173.00000000    1168.00000000
      1164.50000000    1160.50000000    1157.00000000    1153.50000000    1150.00000000    1147.00000000    1143.50000000    1141.00000000    1138.00000000    1135.00000000    1133.00000000    1130.50000000    1128.50000000    1126.50000000    1354.00000000    1417.00000000    1438.00000000    1444.00000000    1483.00000000    1486.00000000
      1460.00000000    1439.00000000    1408.00000000    1393.00000000    1344.50000000    1337.00000000    1329.50000000    1321.50000000    1314.00000000    1306.50000000    1300.50000000    1294.00000000    1288.00000000    1281.00000000    1277.00000000    1273.00000000    1270.00000000    1266.00000000    1262.50000000    1259.50000000
      1257.00000000    1254.50000000    1252.00000000    1249.50000000    1247.50000000    1287.00000000    1287.00000000    1285.00000000    1281.00000000    1275.00000000    1230.50000000    1227.00000000    1223.00000000    1218.50000000    1214.50000000    1210.00000000    1206.00000000    1201.50000000    1197.00000000    1192.50000000
      1188.00000000    1183.50000000    1179.00000000    1175.00000000    1170.50000000    1166.50000000    1162.50000000    1159.00000000    1155.00000000    1151.50000000    1148.50000000    1145.50000000    1142.50000000    1139.00000000    1136.50000000    1134.00000000    1131.00000000    1129.00000000    1127.00000000    1125.00000000
      1347.00000000    1353.50000000    1410.00000000    1433.00000000    1467.00000000    1481.00000000    1484.00000000    1464.00000000    1447.00000000    1420.00000000    1347.50000000    1341.00000000    1334.00000000    1325.50000000    1317.50000000    1309.50000000    1302.00000000    1295.50000000    1289.50000000    1284.00000000
      1278.00000000    1273.50000000    1269.00000000    1265.00000000    1262.00000000    1258.50000000    1255.50000000    1253.00000000    1251.00000000    1248.50000000    1246.50000000    1286.00000000    1285.00000000    1285.00000000    1283.00000000    1281.00000000    1278.00000000    1281.00000000    1268.00000000    1266.00000000
      1265.00000000    1260.00000000    1208.00000000    1204.00000000    1199.50000000    1195.00000000    1190.50000000    1186.00000000    1181.50000000    1177.00000000    1172.50000000    1168.50000000    1164.00000000    1160.00000000    1157.00000000    1153.50000000    1149.50000000    1146.50000000    1143.50000000    1140.50000000
      1137.50000000    1135.00000000    1132.00000000    1130.00000000    1127.50000000    1125.50000000    1123.50000000    1366.00000000    1366.00000000    1366.00000000    1366.00000000    1405.00000000    1352.50000000    1360.00000000    1430.00000000    1461.00000000    1477.00000000    1468.00000000    1452.00000000    1442.00000000
      1419.00000000    1344.50000000    1337.00000000    1329.00000000    1321.00000000    1312.00000000    1304.50000000    1297.00000000    1290.00000000    1284.00000000    1278.50000000    1273.50000000    1268.00000000    1264.00000000    1259.50000000    1256.50000000    1254.00000000    1251.50000000    1249.00000000    1247.00000000
      1287.00000000    1284.00000000    1283.00000000    1284.00000000    1283.00000000    1281.00000000    1278.00000000    1276.00000000    1270.00000000    1266.00000000    1265.00000000    1263.00000000    1259.00000000    1252.00000000    1251.00000000    1197.50000000    1192.50000000    1188.00000000    1183.50000000    1179.00000000
      1174.50000000    1170.50000000    1166.00000000    1162.00000000    1158.00000000    1154.50000000    1151.00000000    1148.00000000    1144.50000000    1141.50000000    1138.50000000    1135.50000000    1133.00000000    1131.00000000    1128.00000000    1126.00000000    1124.00000000    1122.00000000    1332.50000000    1335.50000000
      1328.00000000    1333.00000000    1385.00000000    1350.50000000    1359.00000000    1365.50000000    1431.00000000    1462.00000000    1445.00000000    1432.00000000    1420.00000000    1347.00000000    1339.50000000    1332.00000000    1323.50000000    1314.50000000    1306.50000000    1298.00000000    1291.50000000    1284.50000000
      1278.00000000    1272.00000000    1267.00000000    1262.50000000    1258.00000000    1254.50000000    1251.00000000    1248.50000000    1247.00000000    1245.00000000    1288.00000000    1287.00000000    1286.00000000    1282.00000000    1279.00000000    1278.00000000    1276.00000000    1276.00000000    1270.00000000    1268.00000000
      1262.00000000    1265.00000000    1260.00000000    1256.00000000    1254.00000000    1253.00000000    1248.00000000    1244.00000000    1244.00000000    1240.00000000    1176.50000000    1171.50000000    1167.50000000    1163.50000000    1159.50000000    1156.00000000    1152.00000000    1149.00000000    1145.50000000    1142.50000000
      1139.50000000    1136.50000000    1134.00000000    1131.00000000    1129.00000000    1127.00000000    1124.00000000    1122.00000000    1120.50000000    1322.00000000    1318.00000000    1318.00000000    1316.00000000    1320.00000000    1322.00000000    1318.00000000    1320.00000000    1317.00000000    1314.00000000    1308.50000000
      1311.50000000    1316.00000000    1318.00000000    1313.50000000    1315.50000000    1324.50000000    1329.50000000    1320.50000000    1326.00000000    1335.00000000    1347.00000000    1357.50000000    1365.50000000    1368.50000000    1425.00000000    1449.00000000    1425.00000000    1349.50000000    1342.00000000    1333.50000000
      1325.50000000    1317.00000000    1308.00000000    1299.50000000    1292.00000000    1285.00000000    1278.00000000    1271.50000000    1266.00000000    1260.50000000    1256.00000000    1252.00000000    1249.00000000    1246.50000000    1244.00000000    1242.00000000    1240.50000000    1288.00000000    1287.00000000    1279.00000000
      1272.00000000    1275.00000000    1274.00000000    1273.00000000    1271.00000000    1265.00000000    1261.00000000    1260.00000000    1260.00000000    1255.00000000    1252.00000000    1252.00000000    1250.00000000    1245.00000000    1246.00000000    1244.00000000    1239.00000000    1235.00000000    1234.00000000    1230.00000000
      1229.00000000    1229.00000000    1153.00000000    1150.00000000    1146.00000000    1143.00000000    1140.00000000    1137.50000000    1134.50000000    1131.50000000    1129.50000000    1127.00000000    1125.00000000    1122.50000000    1120.00000000    1319.00000000    1302.00000000    1300.00000000    1299.00000000    1303.00000000
      1305.00000000    1301.00000000    1302.50000000    1294.50000000    1298.00000000    1299.50000000    1295.00000000    1296.50000000    1307.00000000    1309.00000000    1304.50000000    1306.50000000    1311.00000000    1313.50000000    1308.50000000    1310.50000000    1301.50000000    1303.50000000    1298.50000000    1300.50000000
      1305.50000000    1307.50000000    1302.50000000    1304.50000000    1315.50000000    1320.50000000    1309.50000000    1315.00000000    1327.00000000    1341.00000000    1355.00000000    1364.00000000    1366.00000000    1363.00000000    1357.50000000    1415.00000000    1342.50000000    1335.00000000    1326.50000000    1317.50000000
      1309.50000000    1301.00000000    1292.50000000    1282.00000000    1278.00000000    1271.00000000    1264.50000000    1259.00000000    1254.00000000    1250.00000000    1246.50000000    1243.00000000    1241.00000000    1239.50000000    1237.50000000    1236.00000000    1283.00000000    1273.00000000    1283.00000000    1273.00000000
      1272.00000000    1273.00000000    1273.00000000    1267.00000000    1263.00000000    1259.00000000    1258.00000000    1258.00000000    1256.00000000    1250.00000000    1249.00000000    1247.00000000    1248.00000000    1245.00000000    1242.00000000    1242.00000000    1238.00000000    1236.00000000    1236.00000000    1232.00000000
      1228.00000000    1227.00000000    1147.00000000    1144.00000000    1140.50000000    1220.00000000    1134.50000000    1203.00000000    1200.00000000    1195.00000000    1192.00000000    1189.00000000    1120.50000000    1118.50000000    1321.00000000    1288.50000000    1291.50000000    1282.50000000    1285.50000000    1295.50000000
      1297.50000000    1292.50000000    1294.50000000    1298.50000000    1289.50000000    1290.50000000    1285.50000000    1287.50000000    1292.00000000    1302.50000000    1314.50000000    1330.50000000    1346.00000000    1357.00000000    1360.00000000    1356.00000000    1349.00000000    1341.50000000    1333.50000000    1325.50000000
      1317.50000000    1309.00000000    1300.50000000    1292.50000000    1285.00000000    1277.00000000    1270.00000000    1263.50000000    1257.50000000    1252.00000000    1247.50000000    1243.50000000    1240.50000000    1238.00000000    1235.50000000    1233.50000000    1232.50000000    1283.00000000    1280.00000000    1272.00000000
      1227.00000000    1271.00000000    1270.00000000    1268.00000000    1268.00000000    1263.00000000    1262.00000000    1256.00000000    1256.00000000    1256.00000000    1255.00000000    1250.00000000    1247.00000000    1245.00000000    1240.00000000    1240.00000000    1242.00000000    1239.00000000    1240.00000000    1237.00000000
      1235.00000000    1232.00000000    1231.00000000    1226.00000000    1144.00000000    1141.00000000    1138.00000000    1135.00000000    1210.00000000    1205.00000000    1199.00000000    1196.00000000    1191.00000000    1185.00000000    1189.00000000    1116.50000000    1270.50000000    1276.50000000    1278.50000000    1269.50000000
      1271.50000000    1282.50000000    1284.00000000    1278.50000000    1280.50000000    1284.50000000    1275.50000000    1276.50000000    1271.50000000    1273.50000000    1277.50000000    1287.00000000    1298.50000000    1312.50000000    1328.00000000    1341.00000000    1346.50000000    1343.00000000    1336.50000000    1329.00000000
      1321.50000000    1314.00000000    1306.50000000    1299.00000000    1291.00000000    1283.50000000    1276.00000000    1269.00000000    1261.50000000    1255.00000000    1249.50000000    1245.00000000    1240.50000000    1237.00000000    1234.50000000    1231.50000000    1230.00000000    1284.00000000    1279.00000000    1277.00000000
      1274.00000000    1272.00000000    1273.00000000    1265.00000000    1266.00000000    1266.00000000    1263.00000000    1261.00000000    1260.00000000    1257.00000000    1251.00000000    1250.00000000    1253.00000000    1251.00000000    1243.00000000    1241.00000000    1239.00000000    1237.00000000    1240.00000000    1238.00000000
      1235.00000000    1235.00000000    1231.00000000    1232.00000000    1229.00000000    1227.00000000    1225.00000000    1223.00000000    1135.00000000    1213.00000000    1212.00000000    1207.00000000    1202.00000000    1197.00000000    1195.00000000    1186.00000000    1188.00000000    1185.00000000    1336.00000000    1258.00000000
      1263.00000000    1264.50000000    1256.50000000    1258.00000000    1268.50000000    1269.50000000    1264.50000000    1265.50000000    1269.50000000    1261.00000000    1261.50000000    1257.00000000    1258.00000000    1262.00000000    1271.00000000    1278.50000000    1289.00000000    1302.00000000    1314.00000000    1319.50000000
      1321.50000000    1318.50000000    1313.50000000    1307.00000000    1301.00000000    1294.50000000    1287.50000000    1281.00000000    1273.50000000    1266.50000000    1259.50000000    1253.00000000    1247.00000000    1241.50000000    1237.00000000    1233.50000000    1230.00000000    1227.50000000    1225.50000000    1223.50000000
      1282.00000000    1279.00000000    1275.00000000    1271.00000000    1265.00000000    1259.00000000    1217.00000000    1262.00000000    1214.00000000    1262.00000000    1260.00000000    1259.00000000    1255.00000000    1250.00000000    1251.00000000    1246.00000000    1242.00000000    1221.00000000    1232.00000000    1236.00000000
      1229.00000000    1235.00000000    1229.00000000    1229.00000000    1229.00000000    1230.00000000    1229.00000000    1230.00000000    1227.00000000    1230.00000000    1219.00000000    1217.00000000    1214.00000000    1208.00000000    1203.00000000    1200.00000000    1194.00000000    1190.00000000    1185.00000000    1190.00000000
      1189.00000000    1325.00000000    1247.50000000    1250.50000000    1251.00000000    1244.50000000    1245.00000000    1248.00000000    1248.00000000    1248.00000000    1248.00000000    1248.00000000    1248.00000000    1248.00000000    1248.00000000    1245.50000000    1248.00000000    1248.00000000    1244.50000000    1245.00000000
      1256.00000000    1258.00000000    1314.00000000    1314.00000000    1314.00000000    1314.00000000    1314.00000000    1314.00000000    1327.00000000    1318.00000000    1333.00000000    1341.00000000    1361.00000000    1296.50000000    1295.00000000    1291.50000000    1286.50000000    1281.50000000    1275.50000000    1269.00000000
      1263.00000000    1256.50000000    1250.00000000    1244.00000000    1238.50000000    1233.50000000    1229.50000000    1226.00000000    1223.00000000    1220.50000000    1219.00000000    1217.50000000    1280.00000000    1276.00000000    1273.00000000    1269.00000000    1262.00000000    1255.00000000    1258.00000000    1260.00000000
      1259.00000000    1257.00000000    1259.00000000    1258.00000000    1255.00000000    1250.00000000    1244.00000000    1244.00000000    1235.00000000    1233.00000000    1233.00000000    1232.00000000    1233.00000000    1226.00000000    1226.00000000    1228.00000000    1226.00000000    1226.00000000    1226.00000000    1227.00000000
      1222.00000000    1223.00000000    1226.00000000    1212.00000000    1208.00000000    1203.00000000    1202.00000000    1194.00000000    1193.00000000    1189.00000000    1186.00000000    1188.00000000    1243.50000000    1318.00000000    1237.50000000    1236.00000000    1239.50000000    1239.50000000    1233.00000000    1233.00000000
      1242.00000000    1242.00000000    1238.00000000    1239.00000000    1241.50000000    1235.00000000    1235.00000000    1299.00000000    1299.00000000    1234.00000000    1323.00000000    1313.00000000    1310.00000000    1318.00000000    1334.00000000    1330.00000000    1275.00000000    1276.00000000    1274.50000000    1271.50000000
      1267.50000000    1263.00000000    1257.00000000    1251.50000000    1246.00000000    1240.00000000    1234.50000000    1266.00000000    1273.00000000    1272.00000000    1218.50000000    1216.00000000    1213.50000000    1212.00000000    1211.00000000    1274.00000000    1273.00000000    1268.00000000    1264.00000000    1259.00000000
      1260.00000000    1255.00000000    1252.00000000    1250.00000000    1253.00000000    1253.00000000    1253.00000000    1252.00000000    1250.00000000    1242.00000000    1239.00000000    1236.00000000    1229.00000000    1231.00000000    1232.00000000    1230.00000000    1226.00000000    1226.00000000    1228.00000000    1225.00000000
      1225.00000000    1222.00000000    1217.00000000    1222.00000000    1215.00000000    1214.00000000    1208.00000000    1206.00000000    1200.00000000    1196.00000000    1192.00000000    1189.00000000    1190.00000000    1186.00000000    1184.00000000    1314.00000000    1232.00000000    1311.00000000    1225.50000000    1227.00000000
      1226.50000000    1221.00000000    1220.50000000    1228.00000000    1228.00000000    1294.00000000    1294.00000000    1294.00000000    1294.00000000    1294.00000000    1294.00000000    1294.00000000    1294.00000000    1301.00000000    1312.00000000    1308.00000000    1314.00000000    1310.00000000    1251.50000000    1255.50000000
      1257.50000000    1258.00000000    1256.00000000    1253.00000000    1249.50000000    1245.00000000    1240.00000000    1235.00000000    1230.00000000    1224.50000000    1260.00000000    1273.00000000    1280.00000000    1283.00000000    1278.00000000    1206.50000000    1205.00000000    1204.50000000    1278.00000000    1271.00000000
      1266.00000000    1260.00000000    1257.00000000    1256.00000000    1253.00000000    1249.00000000    1248.00000000    1245.00000000    1247.00000000    1248.00000000    1246.00000000    1244.00000000    1240.00000000    1235.00000000    1231.00000000    1222.00000000    1229.00000000    1228.00000000    1224.00000000    1225.00000000
      1222.00000000    1222.00000000    1222.00000000    1221.00000000    1222.00000000    1214.00000000    1210.00000000    1205.00000000    1204.00000000    1202.00000000    1195.00000000    1193.00000000    1191.00000000    1189.00000000    1183.00000000    1188.00000000    1183.00000000    1182.00000000    1314.00000000    1309.00000000
      1301.00000000    1297.00000000    1293.00000000    1215.50000000    1214.50000000    1209.50000000    1275.00000000    1282.00000000    1282.00000000    1282.00000000    1282.00000000    1282.00000000    1282.00000000    1282.00000000    1282.00000000    1282.00000000    1282.00000000    1301.00000000    1296.00000000    1300.00000000
      1313.00000000    1320.00000000    1296.00000000    1301.00000000    1240.00000000    1241.00000000    1241.00000000    1239.00000000    1236.00000000    1232.50000000    1228.00000000    1224.00000000    1219.50000000    1252.00000000    1266.00000000    1279.00000000    1282.00000000    1279.00000000    1280.00000000    1278.00000000
      1273.00000000    1268.00000000    1271.00000000    1265.00000000    1264.00000000    1259.00000000    1256.00000000    1253.00000000    1250.00000000    1198.50000000    1244.00000000    1241.00000000    1241.00000000    1242.00000000    1243.00000000    1240.00000000    1236.00000000    1230.00000000    1229.00000000    1226.00000000
      1223.00000000    1223.00000000    1221.00000000    1219.00000000    1218.00000000    1211.00000000    1216.00000000    1214.00000000    1212.00000000    1208.00000000    1202.00000000    1201.00000000    1198.00000000    1194.00000000    1193.00000000    1190.00000000    1187.00000000    1186.00000000    1181.00000000    1183.00000000
      1183.00000000    1180.00000000    1313.00000000    1307.00000000    1303.00000000    1297.00000000    1293.00000000    1292.00000000    1277.00000000    1277.00000000    1277.00000000    1277.00000000    1203.00000000    1202.50000000    1200.50000000    1199.50000000    1202.50000000    1202.00000000    1199.00000000    1199.00000000
      1195.50000000    1196.00000000    1195.50000000    1193.00000000    1192.50000000    1289.00000000    1289.00000000    1289.00000000    1289.00000000    1294.00000000    1290.00000000    1291.00000000    1292.00000000    1293.00000000    1301.00000000    1224.00000000    1225.50000000    1226.00000000    1225.00000000    1223.00000000
      1220.00000000    1216.50000000    1246.00000000    1241.00000000    1251.00000000    1271.00000000    1276.00000000    1280.00000000    1283.00000000    1279.00000000    1276.00000000    1269.00000000    1266.00000000    1261.00000000    1262.00000000    1260.00000000    1253.00000000    1253.00000000    1251.00000000    1249.00000000
      1250.00000000    1242.00000000    1237.00000000    1236.00000000    1237.00000000    1237.00000000    1236.00000000    1235.00000000    1230.00000000    1229.00000000    1224.00000000    1218.00000000    1219.00000000    1219.00000000    1213.00000000    1211.00000000    1207.00000000    1205.00000000    1204.00000000    1210.00000000
      1205.00000000    1201.00000000    1194.00000000    1194.00000000    1193.00000000    1202.00000000    1187.00000000    1185.00000000    1180.00000000    1181.00000000    1182.00000000    1178.00000000    1176.00000000    1300.50000000    1297.50000000    1293.00000000    1288.00000000    1282.50000000    1277.00000000    1271.00000000
      1265.00000000    1259.00000000    1253.00000000    1312.00000000    1309.00000000    1306.00000000    1297.00000000    1291.00000000    1287.00000000    1289.00000000    1270.00000000    1190.00000000    1190.00000000    1189.50000000    1187.00000000    1186.50000000    1184.00000000    1184.00000000    1183.00000000    1181.00000000
      1180.00000000    1273.00000000    1273.00000000    1273.00000000    1273.00000000    1282.00000000    1291.00000000    1285.00000000    1284.00000000    1282.00000000    1206.50000000    1210.00000000    1212.00000000    1212.50000000    1212.50000000    1247.00000000    1244.00000000    1240.00000000    1241.00000000    1242.00000000
      1259.00000000    1267.00000000    1282.00000000    1283.00000000    1281.00000000    1281.00000000    1277.00000000    1266.00000000    1263.00000000    1259.00000000    1253.00000000    1253.00000000    1251.00000000    1250.00000000    1248.00000000    1245.00000000    1240.00000000    1238.00000000    1239.00000000    1234.00000000
      1235.00000000    1232.00000000    1231.00000000    1227.00000000    1226.00000000    1221.00000000    1219.00000000    1217.00000000    1214.00000000    1212.00000000    1209.00000000    1205.00000000    1206.00000000    1200.00000000    1202.00000000    1206.00000000    1205.00000000    1199.00000000    1204.00000000    1202.00000000
      1189.00000000    1182.00000000    1183.00000000    1181.00000000    1177.00000000    1180.00000000    1174.00000000    1173.00000000    1173.00000000    1297.00000000    1302.50000000    1302.00000000    1300.00000000    1296.50000000    1292.00000000    1286.50000000    1281.50000000    1275.00000000    1269.00000000    1263.00000000
      1257.00000000    1251.50000000    1245.50000000    1301.00000000    1298.00000000    1291.00000000    1287.00000000    1279.00000000    1274.00000000    1266.00000000    1262.00000000    1262.00000000    1262.00000000    1262.00000000    1262.00000000    1262.00000000    1262.00000000    1262.00000000    1262.00000000    1262.00000000
      1264.00000000    1264.00000000    1264.00000000    1264.00000000    1264.00000000    1264.00000000    1264.00000000    1264.00000000    1264.00000000    1264.00000000    1274.00000000    1276.00000000    1284.00000000    1275.00000000    1190.00000000    1195.00000000    1198.50000000    1200.50000000    1251.00000000    1243.00000000
      1233.00000000    1236.00000000    1235.00000000    1235.00000000    1239.00000000    1254.00000000    1267.00000000    1281.00000000    1274.00000000    1275.00000000    1275.00000000    1277.00000000    1263.00000000    1258.00000000    1256.00000000    1250.00000000    1248.00000000    1245.00000000    1244.00000000    1243.00000000
      1242.00000000    1241.00000000    1237.00000000    1229.00000000    1212.00000000    1233.00000000    1229.00000000    1227.00000000    1224.00000000    1220.00000000    1219.00000000    1214.00000000    1211.00000000    1208.00000000    1204.00000000    1205.00000000    1201.00000000    1201.00000000    1197.00000000    1200.00000000
      1199.00000000    1198.00000000    1199.00000000    1196.00000000    1193.00000000    1183.00000000    1176.00000000    1178.00000000    1181.00000000    1179.00000000    1175.00000000    1180.00000000    1175.00000000    1172.00000000    1290.00000000    1287.00000000    1302.00000000    1300.50000000    1298.50000000    1295.00000000
      1290.50000000    1285.00000000    1279.50000000    1274.00000000    1267.00000000    1261.00000000    1255.50000000    1250.50000000    1245.50000000    1239.00000000    1227.50000000    1275.00000000    1274.00000000    1271.00000000    1274.00000000    1263.00000000    1257.00000000    1257.00000000    1257.00000000    1257.00000000
      1257.00000000    1257.00000000    1257.00000000    1265.00000000    1265.00000000    1265.00000000    1265.00000000    1265.00000000    1265.00000000    1265.00000000    1265.00000000    1265.00000000    1265.00000000    1268.00000000    1270.00000000    1272.00000000    1276.00000000    1180.50000000    1186.00000000    1190.00000000
      1256.00000000    1247.00000000    1234.00000000    1229.00000000    1232.00000000    1231.00000000    1233.00000000    1250.00000000    1255.00000000    1275.00000000    1280.00000000    1273.00000000    1277.00000000    1268.00000000    1258.00000000    1253.00000000    1258.00000000    1253.00000000    1249.00000000    1246.00000000
      1242.00000000    1240.00000000    1238.00000000    1235.00000000    1233.00000000    1232.00000000    1230.00000000    1243.00000000    1227.00000000    1223.00000000    1219.00000000    1216.00000000    1215.00000000    1211.00000000    1209.00000000    1206.00000000    1202.00000000    1195.00000000    1197.00000000    1196.00000000
      1194.00000000    1191.00000000    1193.00000000    1194.00000000    1191.00000000    1194.00000000    1188.00000000    1186.00000000    1182.00000000    1182.00000000    1182.00000000    1178.00000000    1178.00000000    1176.00000000    1170.00000000    1171.00000000    1278.00000000    1280.00000000    1277.00000000    1282.00000000
      1300.50000000    1299.00000000    1296.50000000    1292.50000000    1288.50000000    1283.00000000    1277.50000000    1272.00000000    1266.00000000    1259.50000000    1254.50000000    1250.50000000    1248.50000000    1243.00000000    1228.50000000    1277.00000000    1271.00000000    1261.00000000    1261.00000000    1261.00000000