# File generated by Flopy version 3.3.4 on 06/28/2022 at 17:20:26.
BEGIN options
  TIME_UNITS  days
END options

BEGIN dimensions
  NPER  1
END dimensions

BEGIN perioddata
      31.00000000  1       1.00000000
END perioddata

