# File generated by Flopy version 3.3.4 on 06/28/2022 at 17:20:38.
BEGIN options
  BUDGET  FILEOUT  Stampriet.cbc
  BUDGETCSV  FILEOUT  Stampriet.cbc.csv
  HEAD  FILEOUT  Stampriet.hds
END options

BEGIN period  1
  SAVE  HEAD  LAST
  SAVE  BUDGET  LAST
  PRINT  HEAD  LAST
  PRINT  BUDGET  LAST
END period  1

