# File generated by Flopy version 3.3.4 on 06/28/2022 at 17:20:26.
BEGIN options
END options

BEGIN packages
  DISU6  Stampriet.disu  disu
  IC6  Stampriet.ic  ic
  NPF6  Stampriet.npf  npf
  STO6  Stampriet.sto  sto
  CHD6  Stampriet.chd  chd_0
  DRN6  Stampriet.drn  drn_0
  UZF6  Stampriet.uzf  uzf
  OC6  Stampriet.oc  oc
  WEL6  Stampriet.wel  wel
  OBS6  Stampriet.obs  obs
END packages

