# File generated by Flopy version 3.3.4 on 06/28/2022 at 17:20:37.
BEGIN options
  SAVE_FLOWS
END options

BEGIN dimensions
  MAXBOUND  143
END dimensions

BEGIN period  1
  1    1132.19409200
  2    1124.78820800
  3    1120.79748500
  4    1110.08752400
  5    1104.35986300
  6    1102.54589800
  7    1098.55078100
  8    1093.35571300
  9    1090.15014600
  10    1076.16198700
  11    1072.54846200
  12    1071.46032700
  13    1069.69751000
  14    1155.69311500
  15    1149.56420900
  16    1144.40905800
  17    1139.40368700
  29    1077.49902300
  30    1074.10058600
  31    1072.45642100
  32    1057.15258800
  33    1051.47656300
  34    1046.68164100
  35    1039.61572300
  36    1033.88183600
  37    1182.64465300
  38    1170.84277300
  39    1165.22827100
  56    1081.01782200
  57    1080.78466800
  58    1074.44921900
  59    1066.62854000
  64    1217.99951200
  65    1210.67138700
  66    1200.93872100
  67    1194.65856900
  94    1404.18481400
  95    1414.31005900
  96    1407.64648400
  97    1393.06213400
  98    1369.36767600
  99    1367.72961400
  100    1245.34277300
  101    1243.09692400
  102    1240.05090300
  103    1237.64990200
  104    1228.15625000
  134    1361.16491700
  135    1383.57739300
  136    1396.42334000
  137    1420.93481400
  142    1361.53796400
  143    1354.42553700
  144    1353.27563500
  145    1210.44506800
  146    1209.58923300
  147    1208.79296900
  148    1209.22290000
  149    1215.15210000
  150    1219.68408200
  151    1225.28930700
  152    1229.18859900
  153    1237.89440900
  154    1247.21386700
  155    1252.33313000
  156    1259.32409700
  190    1336.96594200
  191    1354.23291000
  201    1332.75732400
  202    1319.95800800
  203    1297.98791500
  204    1273.83984400
  205    1249.36047400
  206    1240.35241700
  207    1223.74914600
  208    1213.43188500
  209    1212.47338900
  255    1351.19226100
  256    1371.28710900
  321    1340.36193800
  322    1355.06970200
  388    1361.00000000
  389    1361.00000000
  390    1361.00000000
  392    1372.88073700
  459    1315.53857400
  461    1315.53857400
  530    1287.99169900
  531    1287.99169900
  532    1287.99169900
  534    1287.99169900
  535    1287.99169900
  538    1287.99169900
  540    1287.99169900
  546    1313.36657700
  616    1271.44104000
  617    1271.44104000
  618    1271.44104000
  620    1271.44104000
  621    1271.44104000
  624    1271.44104000
  629    1283.60803200
  715    1316.00000000
  716    1264.42431600
  797    1254.44482400
  879    1264.45764200
  880    1262.02673300
  962    1254.44030800
  1053    1245.92053200
  1054    1248.80871600
  1136    1243.55371100
  1219    1247.53161600
  1220    1243.19262700
  1303    1251.89221200
  1304    1247.06372100
  1394    1266.28662100
  1395    1254.05419900
  1396    1237.60717800
  1397    1235.23950200
  1398    1237.11279300
  1399    1240.38623000
  1400    1241.75720200
  1401    1243.52307100
  1402    1244.31030300
  1403    1250.04272500
  1404    1254.26501500
  1405    1253.83618200
  1490    1223.89233400
  1491    1241.31372100
  1492    1269.06323200
  1493    1272.55346700
  1595    1206.87182600
  1596    1215.01574700
  1697    1273.00000000
  1698    1180.09191900
  1699    1186.72375500
  1807    1172.55127000
  1808    1173.54272500
  1927    1166.00378400
  1928    1163.75256300
  2066    1178.55590800
  2067    1160.84423800
  2068    1157.44250500
END period  1

