# File generated by Flopy version 3.3.4 on 06/28/2022 at 17:20:37.
BEGIN options
  SAVE_FLOWS
END options

BEGIN dimensions
  MAXBOUND  113
END dimensions

BEGIN period  1
  11542     950.00000000       0.10000000
  11550     956.00000000       0.10000000
  11551     956.00000000       0.10000000
  11552     956.00000000       0.10000000
  11619     946.00000000       0.10000000
  11624     955.00000000       0.10000000
  11625     955.00000000       0.10000000
  11626     955.00000000       0.10000000
  11704     949.00000000       0.10000000
  11710     945.00000000       0.10000000
  11712     945.00000000       0.10000000
  11715     945.00000000       0.10000000
  11716     945.00000000       0.10000000
  11717     945.00000000       0.10000000
  11718     939.00000000       0.10000000
  11719     900.00000000       0.10000000
  11808     934.00000000       0.10000000
  11817     936.00000000       0.10000000
  11818     936.00000000       0.10000000
  11820     955.00000000       0.10000000
  11821     955.00000000       0.10000000
  11822     955.00000000       0.10000000
  11823     869.00000000       0.10000000
  11824     834.00000000       0.10000000
  11889     938.00000000       0.10000000
  11890     943.00000000       0.10000000
  11891     948.00000000       0.10000000
  11892     825.00000000       0.10000000
  11893     814.00000000       0.10000000
  11953     932.00000000       0.10000000
  11958     942.00000000       0.10000000
  11961     942.00000000       0.10000000
  11962     942.00000000       0.10000000
  11963     942.00000000       0.10000000
  11964     812.00000000       0.10000000
  11965     793.00000000       0.10000000
  11966     793.00000000       0.10000000
  12118     930.00000000       0.10000000
  12121     920.00000000       0.10000000
  12124     920.00000000       0.10000000
  12125     920.00000000       0.10000000
  12128     890.00000000       0.10000000
  12130     890.00000000       0.10000000
  12133     890.00000000       0.10000000
  12134     890.00000000       0.10000000
  12136     890.00000000       0.10000000
  12137     890.00000000       0.10000000
  12138     890.00000000       0.10000000
  12139     793.00000000       0.10000000
  12140     793.00000000       0.10000000
  12141     846.00000000       0.10000000
  12142     894.00000000       0.10000000
  12143     874.00000000       0.10000000
  12144     869.00000000       0.10000000
  12145     866.00000000       0.10000000
  12146     868.00000000       0.10000000
  12147     866.00000000       0.10000000
  12153     869.00000000       0.10000000
  12154     869.00000000       0.10000000
  12162     864.00000000       0.10000000
  12163     864.00000000       0.10000000
  12166     864.00000000       0.10000000
  12167     864.00000000       0.10000000
  12175     858.00000000       0.10000000
  12176     858.00000000       0.10000000
  12179     858.00000000       0.10000000
  12180     858.00000000       0.10000000
  12189     863.00000000       0.10000000
  12190     863.00000000       0.10000000
  12193     877.00000000       0.10000000
  12194     877.00000000       0.10000000
  12195     883.00000000       0.10000000
  12198     880.00000000       0.10000000
  12199     880.00000000       0.10000000
  12208     870.00000000       0.10000000
  12209     870.00000000       0.10000000
  12218     868.00000000       0.10000000
  12219     868.00000000       0.10000000
  12228     874.00000000       0.10000000
  12231     874.00000000       0.10000000
  12232     874.00000000       0.10000000
  12237     879.00000000       0.10000000
  12238     879.00000000       0.10000000
  12241     879.00000000       0.10000000
  12242     879.00000000       0.10000000
  12253     877.00000000       0.10000000
  12254     877.00000000       0.10000000
  12255     877.00000000       0.10000000
  12264     890.00000000       0.10000000
  12265     890.00000000       0.10000000
  12274     892.00000000       0.10000000
  12275     892.00000000       0.10000000
  12278     919.00000000       0.10000000
  12279     919.00000000       0.10000000
  12282     910.00000000       0.10000000
  12283     910.00000000       0.10000000
  12292     900.00000000       0.10000000
  12293     900.00000000       0.10000000
  12302     910.00000000       0.10000000
  12305     910.00000000       0.10000000
  12306     910.00000000       0.10000000
  12315     914.00000000       0.10000000
  12316     914.00000000       0.10000000
  12325     908.00000000       0.10000000
  12328     908.00000000       0.10000000
  12329     908.00000000       0.10000000
  12332     908.00000000       0.10000000
  12334     908.00000000       0.10000000
  12337     908.00000000       0.10000000
  12338     908.00000000       0.10000000
  12340     908.00000000       0.10000000
  12341     908.00000000       0.10000000
  12342     908.00000000       0.10000000
END period  1

