# File generated by Flopy version 3.3.4 on 06/28/2022 at 17:20:37.
BEGIN options
  SAVE_FLOWS
  STORAGECOEFFICIENT
END options

BEGIN griddata
  iconvert
    CONSTANT  1
  ss
    INTERNAL  FACTOR  1.0
    1.00000000E-04  1.00000000E-04  1.00000000E-04  1.00000000E-04  1.00000000E-04  1.00000000E-04  1.00000000E-04  1.00000000E-04  1.00000000E-04  1.00000000E-04  1.00000000E-04  1.00000000E-04  1.00000000E-04  1.00000000E-04  1.00000000E-04  1.00000000E-04  1.00000000E-04  1.00000000E-04  1.00000000E-04  1.00000000E-04
    1.00000000E-04  1.00000000E-04  1.00000000E-04  1.00000000E-04  1.00000000E-04  1.00000000E-04  1.00000000E-04  1.00000000E-04  1.00000000E-04  1.00000000E-04  1.00000000E-04  1.00000000E-04  1.00000000E-04  1.00000000E-04  1.00000000E-04  1.00000000E-04  1.00000000E-04  1.00000000E-04  1.00000000E-04  1.00000000E-04
    1.00000000E-04  1.00000000E-04  1.00000000E-04  1.00000000E-04  1.00000000E-04  1.00000000E-04  1.00000000E-04  1.00000000E-04  1.00000000E-04  1.00000000E-04  1.00000000E-04  1.00000000E-04  1.00000000E-04  1.00000000E-04  1.00000000E-04  1.00000000E-04  1.00000000E-04  1.00000000E-04  1.00000000E-04  1.00000000E-04
    1.00000000E-04  1.00000000E-04  1.00000000E-04       0.15000000       0.15000000  1.00000000E-04  1.00000000E-04  1.00000000E-04  1.00000000E-04  1.00000000E-04  1.00000000E-04  1.00000000E-04  1.00000000E-04  1.00000000E-04  1.00000000E-04  1.00000000E-04  1.00000000E-04  1.00000000E-04  1.00000000E-04  1.00000000E-04
    1.00000000E-04  1.00000000E-04  1.00000000E-04  1.00000000E-04  1.00000000E-04  1.00000000E-04  1.00000000E-04  1.00000000E-04  1.00000000E-04  1.00000000E-04  1.00000000E-04  1.00000000E-04  1.00000000E-04       0.09000000       0.09000000       0.09000000       0.09000000       0.09000000       0.09000000       0.15000000
         0.15000000       0.15000000       0.15000000       0.15000000       0.15000000  1.00000000E-04       0.15000000  1.00000000E-04  1.00000000E-04  1.00000000E-04  1.00000000E-04  1.00000000E-04  1.00000000E-04  1.00000000E-04  1.00000000E-04  1.00000000E-04  1.00000000E-04  1.00000000E-04  1.00000000E-04  1.00000000E-04
    1.00000000E-04  1.00000000E-04  1.00000000E-04  1.00000000E-04  1.00000000E-04  1.00000000E-04  1.00000000E-04  1.00000000E-04  1.00000000E-04  1.00000000E-04  1.00000000E-04  1.00000000E-04  1.00000000E-04       0.09000000       0.09000000       0.09000000       0.09000000       0.09000000       0.09000000       0.09000000
         0.09000000       0.09000000       0.09000000       0.09000000       0.09000000       0.09000000       0.09000000       0.09000000       0.09000000       0.09000000       0.09000000       0.09000000       0.15000000       0.15000000       0.15000000       0.15000000       0.15000000       0.15000000       0.15000000       0.15000000
         0.15000000       0.15000000       0.15000000       0.15000000  1.00000000E-04  1.00000000E-04  1.00000000E-04  1.00000000E-04  1.00000000E-04  1.00000000E-04  1.00000000E-04  1.00000000E-04  1.00000000E-04  1.00000000E-04  1.00000000E-04  1.00000000E-04  1.00000000E-04  1.00000000E-04  1.00000000E-04  1.00000000E-04
    1.00000000E-04  1.00000000E-04  1.00000000E-04  1.00000000E-04  1.00000000E-04  1.00000000E-04  1.00000000E-04  1.00000000E-04  1.00000000E-04       0.09000000       0.09000000       0.09000000       0.09000000       0.09000000       0.09000000       0.09000000       0.09000000       0.09000000       0.09000000       0.09000000
         0.09000000       0.09000000       0.09000000       0.09000000       0.09000000       0.09000000       0.09000000       0.09000000       0.09000000       0.09000000       0.09000000       0.09000000       0.09000000       0.15000000       0.09000000       0.15000000       0.15000000       0.15000000       0.15000000       0.15000000
         0.15000000       0.15000000       0.15000000       0.15000000       0.15000000       0.15000000       0.15000000       0.15000000       0.15000000  1.00000000E-04  1.00000000E-04  1.00000000E-04  1.00000000E-04  1.00000000E-04  1.00000000E-04  1.00000000E-04  1.00000000E-04  1.00000000E-04  1.00000000E-04  1.00000000E-04
    1.00000000E-04  1.00000000E-04  1.00000000E-04  1.00000000E-04  1.00000000E-04  1.00000000E-04  1.00000000E-04  1.00000000E-04  1.00000000E-04  1.00000000E-04  1.00000000E-04  1.00000000E-04  1.00000000E-04  1.00000000E-04       0.09000000       0.09000000       0.09000000       0.09000000       0.09000000       0.09000000
         0.09000000       0.09000000       0.09000000       0.09000000       0.09000000       0.09000000       0.09000000       0.09000000       0.09000000       0.09000000       0.09000000       0.09000000       0.09000000       0.09000000       0.09000000       0.09000000       0.09000000       0.09000000       0.15000000       0.09000000
         0.15000000       0.15000000       0.15000000       0.15000000       0.15000000       0.15000000       0.15000000       0.15000000       0.15000000       0.15000000       0.15000000       0.15000000       0.15000000       0.15000000  1.00000000E-04  1.00000000E-04  1.00000000E-04  1.00000000E-04  1.00000000E-04  1.00000000E-04
    1.00000000E-04  1.00000000E-04  1.00000000E-04  1.00000000E-04  1.00000000E-04  1.00000000E-04  1.00000000E-04  1.00000000E-04  1.00000000E-04  1.00000000E-04  1.00000000E-04  1.00000000E-04  1.00000000E-04  1.00000000E-04  1.00000000E-04  1.00000000E-04  1.00000000E-04  1.00000000E-04  1.00000000E-04  1.00000000E-04
         0.09000000       0.09000000       0.09000000       0.09000000       0.09000000       0.09000000       0.09000000       0.09000000       0.09000000       0.09000000       0.09000000       0.09000000       0.09000000       0.09000000       0.09000000       0.09000000       0.09000000       0.09000000       0.09000000       0.09000000
         0.09000000       0.09000000       0.09000000       0.09000000       0.09000000       0.15000000       0.15000000       0.15000000       0.15000000       0.15000000       0.15000000       0.15000000       0.15000000       0.15000000       0.15000000       0.15000000       0.15000000       0.15000000       0.15000000       0.15000000
         0.15000000       0.15000000  1.00000000E-04  1.00000000E-04  1.00000000E-04  1.00000000E-04  1.00000000E-04  1.00000000E-04  1.00000000E-04  1.00000000E-04  1.00000000E-04  1.00000000E-04  1.00000000E-04  1.00000000E-04  1.00000000E-04  1.00000000E-04  1.00000000E-04  1.00000000E-04  1.00000000E-04  1.00000000E-04
    1.00000000E-04  1.00000000E-04  1.00000000E-04  1.00000000E-04  1.00000000E-04  1.00000000E-04  1.00000000E-04       0.09000000       0.09000000       0.09000000       0.09000000       0.09000000       0.09000000       0.09000000       0.09000000       0.09000000       0.09000000       0.09000000       0.09000000       0.09000000
         0.09000000       0.09000000       0.09000000       0.09000000       0.09000000       0.09000000       0.09000000       0.09000000       0.09000000       0.09000000       0.09000000       0.09000000       0.09000000       0.09000000       0.09000000       0.09000000       0.09000000       0.15000000       0.15000000       0.15000000
         0.15000000       0.15000000       0.15000000       0.15000000       0.15000000       0.15000000       0.15000000       0.15000000       0.15000000       0.15000000       0.15000000       0.15000000       0.15000000       0.15000000  1.00000000E-04  1.00000000E-04  1.00000000E-04  1.00000000E-04  1.00000000E-04  1.00000000E-04
    1.00000000E-04  1.00000000E-04  1.00000000E-04  1.00000000E-04  1.00000000E-04  1.00000000E-04  1.00000000E-04  1.00000000E-04  1.00000000E-04  1.00000000E-04  1.00000000E-04  1.00000000E-04  1.00000000E-04  1.00000000E-04  1.00000000E-04  1.00000000E-04  1.00000000E-04  1.00000000E-04       0.09000000       0.09000000
         0.09000000       0.09000000       0.09000000       0.09000000       0.09000000       0.09000000       0.09000000       0.09000000       0.09000000       0.09000000       0.09000000       0.09000000       0.09000000       0.09000000       0.09000000       0.09000000       0.09000000       0.09000000       0.09000000       0.09000000
         0.09000000       0.09000000       0.09000000       0.09000000       0.09000000       0.09000000       0.15000000       0.15000000       0.15000000       0.15000000       0.15000000       0.15000000       0.15000000       0.15000000       0.15000000       0.15000000       0.15000000       0.15000000       0.15000000       0.15000000
         0.15000000       0.15000000       0.15000000       0.15000000       0.15000000  1.00000000E-04  1.00000000E-04  1.00000000E-04  1.00000000E-04  1.00000000E-04  1.00000000E-04  1.00000000E-04  1.00000000E-04  1.00000000E-04  1.00000000E-04  1.00000000E-04  1.00000000E-04  1.00000000E-04  1.00000000E-04  1.00000000E-04
    1.00000000E-04  1.00000000E-04  1.00000000E-04  1.00000000E-04  1.00000000E-04  1.00000000E-04  1.00000000E-04  1.00000000E-04  1.00000000E-04       0.09000000       0.09000000       0.09000000       0.09000000       0.09000000       0.09000000       0.09000000       0.09000000       0.09000000       0.09000000       0.09000000
         0.09000000       0.09000000       0.09000000       0.09000000       0.09000000       0.09000000       0.09000000       0.09000000       0.09000000       0.09000000       0.09000000       0.09000000       0.09000000       0.09000000       0.09000000       0.09000000       0.09000000       0.09000000       0.09000000       0.09000000
         0.09000000       0.09000000       0.09000000       0.09000000       0.09000000       0.09000000       0.09000000       0.09000000       0.09000000       0.09000000       0.09000000       0.09000000       0.15000000       0.15000000       0.15000000       0.15000000       0.15000000       0.15000000       0.15000000       0.15000000
         0.15000000       0.15000000       0.15000000       0.15000000       0.15000000       0.15000000       0.15000000       0.15000000       0.15000000       0.15000000       0.15000000       0.15000000       0.15000000       0.15000000  1.00000000E-04  1.00000000E-04  1.00000000E-04  1.00000000E-04  1.00000000E-04  1.00000000E-04
    1.00000000E-04  1.00000000E-04  1.00000000E-04  1.00000000E-04  1.00000000E-04  1.00000000E-04  1.00000000E-04  1.00000000E-04  1.00000000E-04  1.00000000E-04  1.00000000E-04  1.00000000E-04  1.00000000E-04  1.00000000E-04  1.00000000E-04       0.09000000       0.09000000       0.09000000       0.09000000       0.09000000
         0.09000000       0.09000000       0.09000000       0.09000000       0.09000000       0.09000000       0.09000000       0.09000000       0.09000000       0.09000000       0.09000000       0.09000000       0.09000000       0.09000000       0.09000000       0.09000000       0.09000000       0.09000000       0.09000000       0.09000000
         0.09000000       0.09000000       0.09000000       0.09000000       0.09000000       0.09000000       0.09000000       0.09000000       0.09000000       0.09000000       0.09000000       0.09000000       0.09000000       0.09000000       0.09000000       0.09000000       0.09000000       0.09000000       0.09000000       0.09000000
         0.09000000       0.09000000       0.09000000       0.09000000       0.09000000       0.09000000       0.09000000       0.09000000       0.09000000       0.09000000       0.15000000       0.15000000       0.15000000       0.15000000       0.15000000       0.15000000       0.15000000       0.15000000       0.15000000       0.15000000
         0.15000000       0.15000000       0.15000000       0.15000000       0.15000000       0.15000000       0.15000000       0.15000000       0.15000000       0.15000000       0.15000000       0.15000000       0.15000000       0.15000000       0.15000000  1.00000000E-04  1.00000000E-04  1.00000000E-04  1.00000000E-04  1.00000000E-04
    1.00000000E-04  1.00000000E-04  1.00000000E-04  1.00000000E-04  1.00000000E-04  1.00000000E-04  1.00000000E-04  1.00000000E-04  1.00000000E-04  1.00000000E-04  1.00000000E-04  1.00000000E-04  1.00000000E-04  1.00000000E-04       0.09000000       0.09000000       0.09000000       0.09000000       0.09000000       0.09000000
         0.09000000       0.09000000       0.09000000       0.09000000       0.09000000       0.09000000       0.09000000       0.09000000       0.09000000       0.09000000       0.09000000       0.09000000       0.09000000       0.09000000       0.09000000       0.09000000       0.09000000       0.09000000       0.09000000       0.09000000
         0.09000000       0.09000000       0.09000000       0.09000000       0.09000000       0.09000000       0.09000000       0.09000000       0.09000000       0.09000000       0.09000000       0.15000000       0.15000000       0.15000000       0.15000000       0.15000000       0.15000000       0.15000000       0.15000000       0.15000000
         0.15000000       0.15000000       0.15000000       0.15000000       0.15000000       0.15000000       0.15000000       0.15000000       0.15000000       0.15000000       0.15000000       0.15000000       0.15000000       0.15000000       0.15000000       0.15000000       0.15000000  1.00000000E-04  1.00000000E-04  1.00000000E-04
    1.00000000E-04  1.00000000E-04  1.00000000E-04  1.00000000E-04  1.00000000E-04  1.00000000E-04  1.00000000E-04  1.00000000E-04  1.00000000E-04  1.00000000E-04  1.00000000E-04  1.00000000E-04  1.00000000E-04  1.00000000E-04  1.00000000E-04  1.00000000E-04       0.09000000       0.09000000       0.09000000       0.09000000
         0.09000000       0.09000000       0.09000000       0.09000000       0.09000000       0.09000000       0.09000000       0.09000000       0.09000000       0.09000000       0.09000000       0.09000000       0.09000000       0.09000000       0.09000000       0.09000000       0.09000000       0.09000000       0.09000000       0.09000000
         0.09000000       0.09000000       0.09000000       0.09000000       0.09000000       0.09000000       0.09000000       0.09000000       0.09000000       0.09000000       0.09000000       0.09000000       0.15000000       0.15000000       0.15000000       0.15000000       0.15000000       0.15000000       0.15000000       0.15000000
         0.15000000       0.15000000       0.15000000       0.15000000       0.15000000       0.15000000       0.15000000       0.15000000       0.15000000       0.15000000       0.15000000       0.15000000       0.15000000       0.15000000       0.15000000       0.15000000       0.15000000       0.15000000       0.15000000  1.00000000E-04
    1.00000000E-04  1.00000000E-04  1.00000000E-04  1.00000000E-04  1.00000000E-04  1.00000000E-04  1.00000000E-04  1.00000000E-04  1.00000000E-04  1.00000000E-04  1.00000000E-04  1.00000000E-04  1.00000000E-04  1.00000000E-04  1.00000000E-04  1.00000000E-04  1.00000000E-04  1.00000000E-04       0.09000000       0.09000000
         0.09000000       0.09000000       0.09000000       0.09000000       0.09000000       0.09000000       0.09000000       0.09000000       0.09000000       0.09000000       0.09000000       0.09000000       0.09000000       0.09000000       0.09000000       0.09000000       0.09000000       0.09000000       0.09000000       0.09000000
         0.09000000       0.09000000       0.09000000       0.09000000       0.09000000       0.09000000       0.09000000       0.09000000       0.09000000       0.09000000       0.09000000       0.09000000       0.09000000       0.09000000       0.09000000       0.15000000       0.15000000       0.15000000       0.15000000       0.15000000
         0.15000000       0.15000000       0.15000000       0.15000000       0.15000000       0.15000000       0.15000000       0.15000000       0.15000000       0.15000000       0.15000000       0.15000000       0.15000000       0.15000000       0.15000000       0.15000000       0.15000000       0.15000000       0.15000000       0.15000000
         0.15000000       0.15000000       0.15000000       0.15000000  1.00000000E-04  1.00000000E-04  1.00000000E-04  1.00000000E-04  1.00000000E-04  1.00000000E-04  1.00000000E-04  1.00000000E-04  1.00000000E-04  1.00000000E-04  1.00000000E-04  1.00000000E-04  1.00000000E-04  1.00000000E-04  1.00000000E-04  1.00000000E-04
    1.00000000E-04       0.09000000       0.09000000       0.09000000       0.09000000       0.09000000       0.09000000       0.09000000       0.09000000       0.09000000       0.09000000       0.09000000       0.09000000       0.09000000       0.09000000       0.09000000       0.09000000       0.09000000       0.09000000       0.09000000
         0.09000000       0.09000000       0.09000000       0.09000000       0.09000000       0.09000000       0.09000000       0.09000000       0.09000000       0.09000000       0.09000000       0.09000000       0.09000000       0.09000000       0.09000000       0.09000000       0.09000000       0.09000000       0.09000000       0.09000000
         0.09000000       0.09000000       0.09000000       0.09000000       0.09000000       0.09000000       0.15000000       0.15000000       0.15000000       0.15000000       0.15000000       0.15000000       0.15000000       0.15000000       0.15000000       0.15000000       0.15000000       0.15000000       0.15000000       0.15000000
         0.15000000       0.15000000       0.15000000       0.15000000       0.15000000       0.15000000       0.15000000       0.15000000       0.15000000       0.15000000       0.15000000       0.15000000       0.15000000       0.15000000       0.15000000  1.00000000E-04  1.00000000E-04  1.00000000E-04  1.00000000E-04  1.00000000E-04
    1.00000000E-04  1.00000000E-04  1.00000000E-04  1.00000000E-04  1.00000000E-04  1.00000000E-04  1.00000000E-04  1.00000000E-04  1.00000000E-04  1.00000000E-04  1.00000000E-04  1.00000000E-04       0.09000000       0.09000000       0.09000000       0.09000000       0.09000000       0.09000000       0.09000000       0.09000000
         0.09000000       0.09000000       0.09000000       0.09000000       0.09000000       0.09000000       0.09000000       0.09000000       0.09000000       0.09000000       0.09000000       0.09000000       0.09000000       0.09000000       0.09000000       0.09000000       0.09000000       0.09000000       0.09000000       0.09000000
         0.09000000       0.09000000       0.09000000       0.09000000       0.09000000       0.09000000       0.09000000       0.09000000       0.09000000       0.15000000       0.15000000       0.15000000       0.15000000       0.15000000       0.15000000       0.15000000       0.15000000       0.15000000       0.15000000       0.15000000
         0.15000000       0.15000000       0.15000000       0.15000000       0.15000000       0.15000000       0.15000000       0.15000000       0.15000000       0.15000000       0.15000000       0.15000000       0.15000000       0.15000000       0.15000000       0.15000000       0.15000000       0.15000000       0.15000000  1.00000000E-04
    1.00000000E-04  1.00000000E-04  1.00000000E-04  1.00000000E-04  1.00000000E-04  1.00000000E-04  1.00000000E-04  1.00000000E-04  1.00000000E-04  1.00000000E-04  1.00000000E-04  1.00000000E-04  1.00000000E-04  1.00000000E-04  1.00000000E-04       0.09000000       0.09000000       0.09000000       0.09000000       0.09000000
         0.09000000       0.09000000       0.09000000       0.09000000       0.09000000       0.09000000       0.09000000       0.09000000       0.09000000       0.09000000       0.09000000       0.09000000       0.09000000       0.09000000       0.09000000       0.09000000       0.09000000       0.09000000       0.09000000       0.09000000
         0.09000000       0.09000000       0.09000000       0.09000000       0.09000000       0.09000000       0.09000000       0.09000000       0.09000000       0.09000000       0.15000000       0.09000000       0.15000000       0.15000000       0.15000000       0.15000000       0.15000000       0.15000000       0.15000000       0.15000000
         0.15000000       0.15000000       0.15000000       0.15000000       0.15000000       0.15000000       0.15000000       0.15000000       0.15000000       0.15000000       0.15000000       0.15000000       0.15000000       0.15000000       0.15000000       0.15000000       0.15000000       0.15000000       0.15000000       0.15000000
         0.15000000       0.15000000       0.15000000       0.15000000  1.00000000E-04  1.00000000E-04  1.00000000E-04  1.00000000E-04  1.00000000E-04  1.00000000E-04  1.00000000E-04  1.00000000E-04  1.00000000E-04  1.00000000E-04  1.00000000E-04  1.00000000E-04  1.00000000E-04  1.00000000E-04       0.09000000       0.09000000
         0.09000000       0.09000000       0.09000000       0.09000000       0.09000000       0.09000000       0.09000000       0.09000000       0.09000000       0.09000000       0.09000000       0.09000000       0.09000000       0.09000000       0.09000000       0.09000000       0.09000000       0.09000000       0.09000000       0.09000000
         0.09000000       0.09000000       0.09000000       0.09000000       0.09000000       0.09000000       0.09000000       0.09000000       0.09000000       0.09000000       0.09000000       0.09000000       0.15000000       0.09000000       0.15000000       0.15000000       0.15000000       0.15000000       0.15000000       0.15000000
         0.15000000       0.15000000       0.15000000       0.15000000       0.15000000       0.15000000       0.15000000       0.15000000       0.15000000       0.15000000       0.15000000       0.15000000       0.15000000       0.15000000       0.15000000       0.15000000       0.15000000       0.15000000       0.15000000       0.15000000
         0.15000000       0.15000000       0.15000000       0.15000000       0.15000000       0.15000000       0.15000000  1.00000000E-04  1.00000000E-04  1.00000000E-04  1.00000000E-04  1.00000000E-04  1.00000000E-04  1.00000000E-04  1.00000000E-04  1.00000000E-04  1.00000000E-04  1.00000000E-04  1.00000000E-04  1.00000000E-04
    1.00000000E-04  1.00000000E-04       0.09000000       0.09000000       0.09000000       0.09000000       0.09000000       0.09000000       0.09000000       0.09000000       0.09000000       0.09000000       0.09000000       0.09000000       0.09000000       0.09000000       0.09000000       0.09000000       0.09000000       0.09000000
         0.09000000       0.09000000       0.09000000       0.09000000       0.09000000       0.09000000       0.09000000       0.09000000       0.09000000       0.09000000       0.09000000       0.09000000       0.09000000       0.09000000       0.00100000       0.09000000       0.09000000       0.09000000       0.09000000       0.09000000
         0.15000000       0.15000000       0.09000000       0.15000000       0.15000000       0.15000000       0.15000000       0.15000000       0.15000000       0.15000000       0.15000000       0.15000000       0.15000000       0.15000000       0.15000000       0.15000000       0.15000000       0.15000000       0.15000000       0.15000000
         0.15000000       0.15000000       0.15000000       0.15000000       0.15000000       0.15000000       0.15000000       0.15000000       0.15000000       0.15000000       0.15000000       0.15000000       0.15000000       0.15000000       0.15000000       0.15000000       0.15000000       0.15000000       0.15000000  1.00000000E-04
    1.00000000E-04  1.00000000E-04  1.00000000E-04  1.00000000E-04  1.00000000E-04  1.00000000E-04  1.00000000E-04  1.00000000E-04  1.00000000E-04  1.00000000E-04  1.00000000E-04  1.00000000E-04  1.00000000E-04  2.00000000E-04  2.00000000E-04  2.00000000E-04  2.00000000E-04  2.00000000E-04  2.00000000E-04  2.00000000E-04
    2.00000000E-04  2.00000000E-04  2.00000000E-04  2.00000000E-04  2.00000000E-04       0.09000000       0.09000000       0.09000000       0.09000000       0.09000000       0.09000000       0.09000000       0.09000000       0.09000000       0.09000000       0.09000000       0.09000000       0.09000000       0.09000000       0.09000000
         0.09000000       0.09000000       0.09000000       0.09000000       0.09000000       0.00100000       0.09000000       0.00100000       0.09000000       0.00100000       0.00100000       0.00100000       0.00100000       0.00100000       0.15000000       0.15000000       0.15000000       0.15000000       0.15000000       0.15000000
         0.15000000       0.15000000       0.15000000       0.15000000       0.15000000       0.15000000       0.15000000       0.15000000       0.15000000       0.15000000       0.15000000       0.15000000       0.15000000       0.15000000       0.15000000       0.15000000       0.15000000       0.15000000       0.15000000       0.15000000
         0.15000000       0.15000000       0.15000000       0.15000000       0.15000000       0.15000000       0.15000000       0.15000000       0.15000000       0.15000000       0.15000000       0.15000000       0.15000000       0.15000000       0.15000000       0.15000000  1.00000000E-04  1.00000000E-04  1.00000000E-04  1.00000000E-04
    1.00000000E-04  1.00000000E-04  1.00000000E-04  1.00000000E-04  1.00000000E-04  1.00000000E-04  1.00000000E-04  1.00000000E-04  1.00000000E-04  2.00000000E-04  2.00000000E-04  2.00000000E-04  2.00000000E-04  2.00000000E-04  2.00000000E-04  2.00000000E-04  2.00000000E-04  2.00000000E-04  2.00000000E-04  2.00000000E-04
    2.00000000E-04  2.00000000E-04  2.00000000E-04       0.09000000       0.09000000       0.09000000       0.09000000       0.09000000       0.09000000       0.09000000       0.09000000       0.09000000       0.09000000       0.00100000       0.09000000       0.09000000       0.00100000       0.00100000       0.00100000       0.00100000
         0.00100000       0.00100000       0.09000000       0.00100000       0.00100000       0.00100000       0.00100000       0.00100000       0.00100000       0.00100000       0.00100000       0.00100000       0.00100000       0.00100000       0.00100000       0.00100000       0.00100000       0.00100000       0.15000000       0.15000000
         0.15000000       0.15000000       0.15000000       0.15000000       0.15000000       0.15000000       0.15000000       0.15000000       0.15000000       0.15000000       0.15000000       0.15000000       0.15000000       0.15000000       0.15000000       0.15000000       0.15000000       0.15000000       0.15000000       0.15000000
         0.15000000       0.15000000       0.15000000       0.15000000       0.15000000       0.15000000       0.15000000       0.15000000       0.15000000       0.15000000       0.15000000       0.15000000       0.15000000       0.15000000       0.15000000       0.15000000       0.15000000       0.15000000       0.15000000       0.15000000
    1.00000000E-04  1.00000000E-04  1.00000000E-04  1.00000000E-04  1.00000000E-04  1.00000000E-04  1.00000000E-04  1.00000000E-04  1.00000000E-04  1.00000000E-04  1.00000000E-04  1.00000000E-04  1.00000000E-04  1.00000000E-04  2.00000000E-04  2.00000000E-04  2.00000000E-04  2.00000000E-04  2.00000000E-04  2.00000000E-04
    2.00000000E-04  2.00000000E-04  2.00000000E-04  2.00000000E-04  2.00000000E-04  2.00000000E-04  2.00000000E-04  2.00000000E-04  2.00000000E-04       0.09000000  2.00000000E-04       0.09000000       0.00100000       0.00100000       0.00100000       0.00100000       0.00100000       0.00100000       0.00100000       0.00100000
         0.00100000       0.00100000       0.00100000       0.00100000       0.00100000       0.00100000       0.00100000       0.00100000       0.00100000       0.00100000       0.00100000       0.00100000       0.00100000       0.00100000       0.00100000       0.00100000       0.00100000       0.00100000       0.00100000       0.00100000
         0.00100000       0.00100000       0.00100000       0.00100000       0.15000000       0.15000000       0.15000000       0.15000000       0.15000000       0.15000000       0.15000000       0.15000000       0.15000000       0.15000000       0.15000000       0.15000000       0.15000000       0.15000000       0.15000000       0.15000000
         0.15000000       0.15000000       0.15000000       0.15000000       0.15000000       0.15000000       0.15000000       0.15000000       0.15000000       0.15000000       0.15000000       0.15000000       0.15000000       0.15000000       0.15000000       0.15000000       0.15000000       0.15000000       0.15000000       0.15000000
         0.15000000       0.15000000       0.15000000  1.00000000E-04  1.00000000E-04  1.00000000E-04  1.00000000E-04  1.00000000E-04  1.00000000E-04  1.00000000E-04  1.00000000E-04  1.00000000E-04  1.00000000E-04  1.00000000E-04  1.00000000E-04  1.00000000E-04  2.00000000E-04  2.00000000E-04  2.00000000E-04  2.00000000E-04
    2.00000000E-04  2.00000000E-04  2.00000000E-04  2.00000000E-04  2.00000000E-04  2.00000000E-04  2.00000000E-04  2.00000000E-04  2.00000000E-04  2.00000000E-04  2.00000000E-04  2.00000000E-04  2.00000000E-04  2.00000000E-04       0.00100000       0.00100000       0.00100000       0.00100000       0.00100000       0.00100000
         0.00100000       0.00100000       0.00100000       0.00100000       0.00100000       0.00100000       0.00100000       0.00100000       0.00100000       0.00100000       0.00100000       0.00100000       0.00100000       0.00100000       0.00100000       0.00100000       0.00100000       0.00100000       0.00100000       0.00100000
         0.00100000       0.00100000       0.00100000       0.00100000       0.00100000       0.00100000       0.00100000       0.00100000       0.00100000       0.00100000       0.00100000       0.00100000       0.00100000       0.00100000       0.00100000       0.15000000       0.15000000       0.15000000       0.15000000       0.15000000