# File generated by Flopy version 3.3.4 on 06/28/2022 at 17:20:36.
BEGIN options
  SAVE_FLOWS
  SAVE_SPECIFIC_DISCHARGE
END options

BEGIN griddata
  icelltype
    CONSTANT  1
  k
    INTERNAL  FACTOR  1.0
        10.00000000      10.00000000      10.00000000      10.00000000      10.00000000      10.00000000      10.00000000      10.00000000      10.00000000      10.00000000      10.00000000      10.00000000      10.00000000      10.00000000      10.00000000      10.00000000      10.00000000      10.00000000      10.00000000      10.00000000
        10.00000000      10.00000000      10.00000000      10.00000000      10.00000000      10.00000000      10.00000000      10.00000000      10.00000000      10.00000000      10.00000000      10.00000000      10.00000000      10.00000000      10.00000000      10.00000000      10.00000000      10.00000000      10.00000000      10.00000000
        10.00000000      10.00000000      10.00000000      10.00000000      10.00000000      10.00000000      10.00000000      10.00000000      10.00000000      10.00000000      10.00000000      10.00000000      10.00000000      10.00000000      10.00000000      10.00000000      10.00000000      10.00000000      10.00000000      10.00000000
        10.00000000      10.00000000      10.00000000       1.00000000       1.00000000      10.00000000      10.00000000      10.00000000      10.00000000      10.00000000      10.00000000      10.00000000      10.00000000      10.00000000      10.00000000      10.00000000      10.00000000      10.00000000      10.00000000      10.00000000
        10.00000000      10.00000000      10.00000000      10.00000000      10.00000000      10.00000000      10.00000000      10.00000000      10.00000000      10.00000000      10.00000000      10.00000000      10.00000000       5.00000000       5.00000000       5.00000000       5.00000000       5.00000000       5.00000000       1.00000000
         1.00000000       1.00000000       1.00000000       1.00000000       1.00000000      10.00000000       1.00000000      10.00000000      10.00000000      10.00000000      10.00000000      10.00000000      10.00000000      10.00000000      10.00000000      10.00000000      10.00000000      10.00000000      10.00000000      10.00000000
        10.00000000      10.00000000      10.00000000      10.00000000      10.00000000      10.00000000      10.00000000      10.00000000      10.00000000      10.00000000      10.00000000      10.00000000      10.00000000       5.00000000       5.00000000       5.00000000       5.00000000       5.00000000       5.00000000       5.00000000
         5.00000000       5.00000000       5.00000000       5.00000000       5.00000000       5.00000000       5.00000000       5.00000000       5.00000000       5.00000000       5.00000000       5.00000000       1.00000000       1.00000000       1.00000000       1.00000000       1.00000000       1.00000000       1.00000000       1.00000000
         1.00000000       1.00000000       1.00000000       1.00000000      10.00000000      10.00000000      10.00000000      10.00000000      10.00000000      10.00000000      10.00000000      10.00000000      10.00000000      10.00000000      10.00000000      10.00000000      10.00000000      10.00000000      10.00000000      10.00000000
        10.00000000      10.00000000      10.00000000      10.00000000      10.00000000      10.00000000      10.00000000      10.00000000      10.00000000       5.00000000       5.00000000       5.00000000       5.00000000       5.00000000       5.00000000       5.00000000       5.00000000       5.00000000       5.00000000       5.00000000
         5.00000000       5.00000000       5.00000000       5.00000000       5.00000000       5.00000000       5.00000000       5.00000000       5.00000000       5.00000000       5.00000000       5.00000000       5.00000000       1.00000000       5.00000000       1.00000000       1.00000000       1.00000000       1.00000000       1.00000000
         1.00000000       1.00000000       1.00000000       1.00000000       1.00000000       1.00000000       1.00000000       1.00000000       1.00000000      10.00000000      10.00000000      10.00000000      10.00000000      10.00000000      10.00000000      10.00000000      10.00000000      10.00000000      10.00000000      10.00000000
        10.00000000      10.00000000      10.00000000      10.00000000      10.00000000      10.00000000      10.00000000      10.00000000      10.00000000      10.00000000      10.00000000      10.00000000      10.00000000      10.00000000       5.00000000       5.00000000       5.00000000       5.00000000       5.00000000       5.00000000
         5.00000000       5.00000000       5.00000000       5.00000000       5.00000000       5.00000000       5.00000000       5.00000000       5.00000000       5.00000000       5.00000000       5.00000000       5.00000000       5.00000000       5.00000000       5.00000000       5.00000000       5.00000000       1.00000000       5.00000000
         1.00000000       1.00000000       1.00000000       1.00000000       1.00000000       1.00000000       1.00000000       1.00000000       1.00000000       1.00000000       1.00000000       1.00000000       1.00000000       1.00000000      10.00000000      10.00000000      10.00000000      10.00000000      10.00000000      10.00000000
        10.00000000      10.00000000      10.00000000      10.00000000      10.00000000      10.00000000      10.00000000      10.00000000      10.00000000      10.00000000      10.00000000      10.00000000      10.00000000      10.00000000      10.00000000      10.00000000      10.00000000      10.00000000      10.00000000      10.00000000
         5.00000000       5.00000000       5.00000000       5.00000000       5.00000000       5.00000000       5.00000000       5.00000000       5.00000000       5.00000000       5.00000000       5.00000000       5.00000000       5.00000000       5.00000000       5.00000000       5.00000000       5.00000000       5.00000000       5.00000000
         5.00000000       5.00000000       5.00000000       5.00000000       5.00000000       1.00000000       1.00000000       1.00000000       1.00000000       1.00000000       1.00000000       1.00000000       1.00000000       1.00000000       1.00000000       1.00000000       1.00000000       1.00000000       1.00000000       1.00000000
         1.00000000       1.00000000      10.00000000      10.00000000      10.00000000      10.00000000      10.00000000      10.00000000      10.00000000      10.00000000      10.00000000      10.00000000      10.00000000      10.00000000      10.00000000      10.00000000      10.00000000      10.00000000      10.00000000      10.00000000
        10.00000000      10.00000000      10.00000000      10.00000000      10.00000000      10.00000000      10.00000000       5.00000000       5.00000000       5.00000000       5.00000000       5.00000000       5.00000000       5.00000000       5.00000000       5.00000000       5.00000000       5.00000000       5.00000000       5.00000000
         5.00000000       5.00000000       5.00000000       5.00000000       5.00000000       5.00000000       5.00000000       5.00000000       5.00000000       5.00000000       5.00000000       5.00000000       5.00000000       5.00000000       5.00000000       5.00000000       5.00000000       1.00000000       1.00000000       1.00000000
         1.00000000       1.00000000       1.00000000       1.00000000       1.00000000       1.00000000       1.00000000       1.00000000       1.00000000       1.00000000       1.00000000       1.00000000       1.00000000       1.00000000      10.00000000      10.00000000      10.00000000      10.00000000      10.00000000      10.00000000
        10.00000000      10.00000000      10.00000000      10.00000000      10.00000000      10.00000000      10.00000000      10.00000000      10.00000000      10.00000000      10.00000000      10.00000000      10.00000000      10.00000000      10.00000000      10.00000000      10.00000000      10.00000000       5.00000000       5.00000000
         5.00000000       5.00000000       5.00000000       5.00000000       5.00000000       5.00000000       5.00000000       5.00000000       5.00000000       5.00000000       5.00000000       5.00000000       5.00000000       5.00000000       5.00000000       5.00000000       5.00000000       5.00000000       5.00000000       5.00000000
         5.00000000       5.00000000       5.00000000       5.00000000       5.00000000       5.00000000       1.00000000       1.00000000       1.00000000       1.00000000       1.00000000       1.00000000       1.00000000       1.00000000       1.00000000       1.00000000       1.00000000       1.00000000       1.00000000       1.00000000
         1.00000000       1.00000000       1.00000000       1.00000000       1.00000000      10.00000000      10.00000000      10.00000000      10.00000000      10.00000000      10.00000000      10.00000000      10.00000000      10.00000000      10.00000000      10.00000000      10.00000000      10.00000000      10.00000000      10.00000000
        10.00000000      10.00000000      10.00000000      10.00000000      10.00000000      10.00000000      10.00000000      10.00000000      10.00000000       5.00000000       5.00000000       5.00000000       5.00000000       5.00000000       5.00000000       5.00000000       5.00000000       5.00000000       5.00000000       5.00000000
         5.00000000       5.00000000       5.00000000       5.00000000       5.00000000       5.00000000       5.00000000       5.00000000       5.00000000       5.00000000       5.00000000       5.00000000       5.00000000       5.00000000       5.00000000       5.00000000       5.00000000       5.00000000       5.00000000       5.00000000
         5.00000000       5.00000000       5.00000000       5.00000000       5.00000000       5.00000000       5.00000000       5.00000000       5.00000000       5.00000000       5.00000000       5.00000000       1.00000000       1.00000000       1.00000000       1.00000000       1.00000000       1.00000000       1.00000000       1.00000000
         1.00000000       1.00000000       1.00000000       1.00000000       1.00000000       1.00000000       1.00000000       1.00000000       1.00000000       1.00000000       1.00000000       1.00000000       1.00000000       1.00000000      10.00000000      10.00000000      10.00000000      10.00000000      10.00000000      10.00000000
        10.00000000      10.00000000      10.00000000      10.00000000      10.00000000      10.00000000      10.00000000      10.00000000      10.00000000      10.00000000      10.00000000      10.00000000      10.00000000      10.00000000      10.00000000       5.00000000       5.00000000       5.00000000       5.00000000       5.00000000
         5.00000000       5.00000000       5.00000000       5.00000000       5.00000000       5.00000000       5.00000000       5.00000000       5.00000000       5.00000000       5.00000000       5.00000000       5.00000000       5.00000000       5.00000000       5.00000000       5.00000000       5.00000000       5.00000000       5.00000000
         5.00000000       5.00000000       5.00000000       5.00000000       5.00000000       5.00000000       5.00000000       5.00000000       5.00000000       5.00000000       5.00000000       5.00000000       5.00000000       5.00000000       5.00000000       5.00000000       5.00000000       5.00000000       5.00000000       5.00000000
         5.00000000       5.00000000       5.00000000       5.00000000       5.00000000       5.00000000       5.00000000       5.00000000       5.00000000       5.00000000       1.00000000       1.00000000       1.00000000       1.00000000       1.00000000       1.00000000       1.00000000       1.00000000       1.00000000       1.00000000
         1.00000000       1.00000000       1.00000000       1.00000000       1.00000000       1.00000000       1.00000000       1.00000000       1.00000000       1.00000000       1.00000000       1.00000000       1.00000000       1.00000000       1.00000000      10.00000000      10.00000000      10.00000000      10.00000000      10.00000000
        10.00000000      10.00000000      10.00000000      10.00000000      10.00000000      10.00000000      10.00000000      10.00000000      10.00000000      10.00000000      10.00000000      10.00000000      10.00000000      10.00000000       5.00000000       5.00000000       5.00000000       5.00000000       5.00000000       5.00000000
         5.00000000       5.00000000       5.00000000       5.00000000       5.00000000       5.00000000       5.00000000       5.00000000       5.00000000       5.00000000       5.00000000       5.00000000       5.00000000       5.00000000       5.00000000       5.00000000       5.00000000       5.00000000       5.00000000       5.00000000
         5.00000000       5.00000000       5.00000000       5.00000000       5.00000000       5.00000000       5.00000000       5.00000000       5.00000000       5.00000000       5.00000000       1.00000000       1.00000000       1.00000000       1.00000000       1.00000000       1.00000000       1.00000000       1.00000000       1.00000000
         1.00000000       1.00000000       1.00000000       1.00000000       1.00000000       1.00000000       1.00000000       1.00000000       1.00000000       1.00000000       1.00000000       1.00000000       1.00000000       1.00000000       1.00000000       1.00000000       1.00000000      10.00000000      10.00000000      10.00000000
        10.00000000      10.00000000      10.00000000      10.00000000      10.00000000      10.00000000      10.00000000      10.00000000      10.00000000      10.00000000      10.00000000      10.00000000      10.00000000      10.00000000      10.00000000      10.00000000       5.00000000       5.00000000       5.00000000       5.00000000
         5.00000000       5.00000000       5.00000000       5.00000000       5.00000000       5.00000000       5.00000000       5.00000000       5.00000000       5.00000000       5.00000000       5.00000000       5.00000000       5.00000000       5.00000000       5.00000000       5.00000000       5.00000000       5.00000000       5.00000000
         5.00000000       5.00000000       5.00000000       5.00000000       5.00000000       5.00000000       5.00000000       5.00000000       5.00000000       5.00000000       5.00000000       5.00000000       1.00000000       1.00000000       1.00000000       1.00000000       1.00000000       1.00000000       1.00000000       1.00000000
         1.00000000       1.00000000       1.00000000       1.00000000       1.00000000       1.00000000       1.00000000       1.00000000       1.00000000       1.00000000       1.00000000       1.00000000       1.00000000       1.00000000       1.00000000       1.00000000       1.00000000       1.00000000       1.00000000      10.00000000
        10.00000000      10.00000000      10.00000000      10.00000000      10.00000000      10.00000000      10.00000000      10.00000000      10.00000000      10.00000000      10.00000000      10.00000000      10.00000000      10.00000000      10.00000000      10.00000000      10.00000000      10.00000000       5.00000000       5.00000000
         5.00000000       5.00000000       5.00000000       5.00000000       5.00000000       5.00000000       5.00000000       5.00000000       5.00000000       5.00000000       5.00000000       5.00000000       5.00000000       5.00000000       5.00000000       5.00000000       5.00000000       5.00000000       5.00000000       5.00000000
         5.00000000       5.00000000       5.00000000       5.00000000       5.00000000       5.00000000       5.00000000       5.00000000       5.00000000       5.00000000       5.00000000       5.00000000       5.00000000       5.00000000       5.00000000       1.00000000       1.00000000       1.00000000       1.00000000       1.00000000
         1.00000000       1.00000000       1.00000000       1.00000000       1.00000000       1.00000000       1.00000000       1.00000000       1.00000000       1.00000000       1.00000000       1.00000000       1.00000000       1.00000000       1.00000000       1.00000000       1.00000000       1.00000000       1.00000000       1.00000000
         1.00000000       1.00000000       1.00000000       1.00000000      10.00000000      10.00000000      10.00000000      10.00000000      10.00000000      10.00000000      10.00000000      10.00000000      10.00000000      10.00000000      10.00000000      10.00000000      10.00000000      10.00000000      10.00000000      10.00000000
        10.00000000       5.00000000       5.00000000       5.00000000       5.00000000       5.00000000       5.00000000       5.00000000       5.00000000       5.00000000       5.00000000       5.00000000       5.00000000       5.00000000       5.00000000       5.00000000       5.00000000       5.00000000       5.00000000       5.00000000
         5.00000000       5.00000000       5.00000000       5.00000000       5.00000000       5.00000000       5.00000000       5.00000000       5.00000000       5.00000000       5.00000000       5.00000000       5.00000000       5.00000000       5.00000000       5.00000000       5.00000000       5.00000000       5.00000000       5.00000000
         5.00000000       5.00000000       5.00000000       5.00000000       5.00000000       5.00000000       1.00000000       1.00000000       1.00000000       1.00000000       1.00000000       1.00000000       1.00000000       1.00000000       1.00000000       1.00000000       1.00000000       1.00000000       1.00000000       1.00000000
         1.00000000       1.00000000       1.00000000       1.00000000       1.00000000       1.00000000       1.00000000       1.00000000       1.00000000       1.00000000       1.00000000       1.00000000       1.00000000       1.00000000       1.00000000      10.00000000      10.00000000      10.00000000      10.00000000      10.00000000
        10.00000000      10.00000000      10.00000000      10.00000000      10.00000000      10.00000000      10.00000000      10.00000000      10.00000000      10.00000000      10.00000000      10.00000000       5.00000000       5.00000000       5.00000000       5.00000000       5.00000000       5.00000000       5.00000000       5.00000000
         5.00000000       5.00000000       5.00000000       5.00000000       5.00000000       5.00000000       5.00000000       5.00000000       5.00000000       5.00000000       5.00000000       5.00000000       5.00000000       5.00000000       5.00000000       5.00000000       5.00000000       5.00000000       5.00000000       5.00000000
         5.00000000       5.00000000       5.00000000       5.00000000       5.00000000       5.00000000       5.00000000       5.00000000       5.00000000       1.00000000       1.00000000       1.00000000       1.00000000       1.00000000       1.00000000       1.00000000       1.00000000       1.00000000       1.00000000       1.00000000
         1.00000000       1.00000000       1.00000000       1.00000000       1.00000000       1.00000000       1.00000000       1.00000000       1.00000000       1.00000000       1.00000000       1.00000000       1.00000000       1.00000000       1.00000000       1.00000000       1.00000000       1.00000000       1.00000000      10.00000000
        10.00000000      10.00000000      10.00000000      10.00000000      10.00000000      10.00000000      10.00000000      10.00000000      10.00000000      10.00000000      10.00000000      10.00000000      10.00000000      10.00000000      10.00000000       5.00000000       5.00000000       5.00000000       5.00000000       5.00000000
         5.00000000       5.00000000       5.00000000       5.00000000       5.00000000       5.00000000       5.00000000       5.00000000       5.00000000       5.00000000       5.00000000       5.00000000       5.00000000       5.00000000       5.00000000       5.00000000       5.00000000       5.00000000       5.00000000       5.00000000
         5.00000000       5.00000000       5.00000000       5.00000000       5.00000000       5.00000000       5.00000000       5.00000000       5.00000000       5.00000000       1.00000000       5.00000000       1.00000000       1.00000000       1.00000000       1.00000000       1.00000000       1.00000000       1.00000000       1.00000000
         1.00000000       1.00000000       1.00000000       1.00000000       1.00000000       1.00000000       1.00000000       1.00000000       1.00000000       1.00000000       1.00000000       1.00000000       1.00000000       1.00000000       1.00000000       1.00000000       1.00000000       1.00000000       1.00000000       1.00000000
         1.00000000       1.00000000       1.00000000       1.00000000      10.00000000      10.00000000      10.00000000      10.00000000      10.00000000      10.00000000      10.00000000      10.00000000      10.00000000      10.00000000      10.00000000      10.00000000      10.00000000      10.00000000       5.00000000       5.00000000
         5.00000000       5.00000000       5.00000000       5.00000000       5.00000000       5.00000000       5.00000000       5.00000000       5.00000000       5.00000000       5.00000000       5.00000000       5.00000000       5.00000000       5.00000000       5.00000000       5.00000000       5.00000000       5.00000000       5.00000000
         5.00000000       5.00000000       5.00000000       5.00000000       5.00000000       5.00000000       5.00000000       5.00000000       5.00000000       5.00000000       5.00000000       5.00000000       1.00000000       5.00000000       1.00000000       1.00000000       1.00000000       1.00000000       1.00000000       1.00000000
         1.00000000       1.00000000       1.00000000       1.00000000       1.00000000       1.00000000       1.00000000       1.00000000       1.00000000       1.00000000       1.00000000       1.00000000       1.00000000       1.00000000       1.00000000       1.00000000       1.00000000       1.00000000       1.00000000       1.00000000
         1.00000000       1.00000000       1.00000000       1.00000000       1.00000000       1.00000000       1.00000000      10.00000000      10.00000000      10.00000000      10.00000000      10.00000000      10.00000000      10.00000000      10.00000000      10.00000000      10.00000000      10.00000000      10.00000000      10.00000000
        10.00000000      10.00000000       5.00000000       5.00000000       5.00000000       5.00000000       5.00000000       5.00000000       5.00000000       5.00000000       5.00000000       5.00000000       5.00000000       5.00000000       5.00000000       5.00000000       5.00000000       5.00000000       5.00000000       5.00000000
         5.00000000       5.00000000       5.00000000       5.00000000       5.00000000       5.00000000       5.00000000       5.00000000       5.00000000       5.00000000       5.00000000       5.00000000       5.00000000       5.00000000       0.70000000       5.00000000       5.00000000       5.00000000       5.00000000       5.00000000
         1.00000000       1.00000000       5.00000000       1.00000000       1.00000000       1.00000000       1.00000000       1.00000000       1.00000000       1.00000000       1.00000000       1.00000000       1.00000000       1.00000000       1.00000000       1.00000000       1.00000000       1.00000000       1.00000000       1.00000000
         1.00000000       1.00000000       1.00000000       1.00000000       1.00000000       1.00000000       1.00000000       1.00000000       1.00000000       1.00000000       1.00000000       1.00000000       1.00000000       1.00000000       1.00000000       1.00000000       1.00000000       1.00000000       1.00000000      10.00000000
        10.00000000      10.00000000      10.00000000      10.00000000      10.00000000      10.00000000      10.00000000      10.00000000      10.00000000      10.00000000      10.00000000      10.00000000      10.00000000       5.00000000       5.00000000       5.00000000       5.00000000       5.00000000       5.00000000       5.00000000
         5.00000000       5.00000000       5.00000000       5.00000000       5.00000000       5.00000000       5.00000000       5.00000000       5.00000000       5.00000000       5.00000000       5.00000000       5.00000000       5.00000000       5.00000000       5.00000000       5.00000000       5.00000000       5.00000000       5.00000000
         5.00000000       5.00000000       5.00000000       5.00000000       5.00000000       0.70000000       5.00000000       0.70000000       5.00000000       0.70000000       0.70000000       0.70000000       0.70000000       0.70000000       1.00000000       1.00000000       1.00000000       1.00000000       1.00000000       1.00000000
         1.00000000       1.00000000       1.00000000       1.00000000       1.00000000       1.00000000       1.00000000       1.00000000       1.00000000       1.00000000       1.00000000       1.00000000       1.00000000       1.00000000       1.00000000       1.00000000       1.00000000       1.00000000       1.00000000       1.00000000
         1.00000000       1.00000000       1.00000000       1.00000000       1.00000000       1.00000000       1.00000000       1.00000000       1.00000000       1.00000000       1.00000000       1.00000000       1.00000000       1.00000000       1.00000000       1.00000000      10.00000000      10.00000000      10.00000000      10.00000000
        10.00000000      10.00000000      10.00000000      10.00000000      10.00000000      10.00000000      10.00000000      10.00000000      10.00000000       5.00000000       5.00000000       5.00000000       5.00000000       5.00000000       5.00000000       5.00000000       5.00000000       5.00000000       5.00000000       5.00000000
         5.00000000       5.00000000       5.00000000       5.00000000       5.00000000       5.00000000       5.00000000       5.00000000       5.00000000       5.00000000       5.00000000       5.00000000       5.00000000       0.70000000       5.00000000       5.00000000       0.70000000       0.70000000       0.70000000       0.70000000
         0.70000000       0.70000000       5.00000000       0.70000000       0.70000000       0.70000000       0.70000000       0.70000000       0.70000000       0.70000000       0.70000000       0.70000000       0.70000000       0.70000000       0.70000000       0.70000000       0.70000000       0.70000000       1.00000000       1.00000000
         1.00000000       1.00000000       1.00000000       1.00000000       1.00000000       1.00000000       1.00000000       1.00000000       1.00000000       1.00000000       1.00000000       1.00000000       1.00000000       1.00000000       1.00000000       1.00000000       1.00000000       1.00000000       1.00000000       1.00000000
         1.00000000       1.00000000       1.00000000       1.00000000       1.00000000       1.00000000       1.00000000       1.00000000       1.00000000       1.00000000       1.00000000       1.00000000       1.00000000       1.00000000       1.00000000       1.00000000       1.00000000       1.00000000       1.00000000       1.00000000
        10.00000000      10.00000000      10.00000000      10.00000000      10.00000000      10.00000000      10.00000000      10.00000000      10.00000000      10.00000000      10.00000000      10.00000000      10.00000000      10.00000000       5.00000000       5.00000000       5.00000000       5.00000000       5.00000000       5.00000000
         5.00000000       5.00000000       5.00000000       5.00000000       5.00000000       5.00000000       5.00000000       5.00000000       5.00000000       5.00000000       5.00000000       5.00000000       0.70000000       0.70000000       0.70000000       0.70000000       0.70000000       0.70000000       0.70000000       0.70000000
         0.70000000       0.70000000       0.70000000       0.70000000       0.70000000       0.70000000       0.70000000       0.70000000       0.70000000       0.70000000       0.70000000       0.70000000       0.70000000       0.70000000       0.70000000       0.70000000       0.70000000       0.70000000       0.70000000       0.70000000
         0.70000000       0.70000000       0.70000000       0.70000000       1.00000000       1.00000000       1.00000000       1.00000000       1.00000000       1.00000000       1.00000000       1.00000000       1.00000000       1.00000000       1.00000000       1.00000000       1.00000000       1.00000000       1.00000000       1.00000000
         1.00000000       1.00000000       1.00000000       1.00000000       1.00000000       1.00000000       1.00000000       1.00000000       1.00000000       1.00000000       1.00000000       1.00000000       1.00000000       1.00000000       1.00000000       1.00000000       1.00000000       1.00000000       1.00000000       1.00000000
         1.00000000       1.00000000       1.00000000      10.00000000      10.00000000      10.00000000      10.00000000      10.00000000      10.00000000      10.00000000      10.00000000      10.00000000      10.00000000      10.00000000      10.00000000      10.00000000       5.00000000       5.00000000       5.00000000       5.00000000
         5.00000000       5.00000000       5.00000000       5.00000000       5.00000000       5.00000000       5.00000000       5.00000000       5.00000000       5.00000000       5.00000000       5.00000000       5.00000000       5.00000000       0.70000000       0.70000000       0.70000000       0.70000000       0.70000000       0.70000000