BEGIN options
  SAVE_FLOWS
  BUDGET  FILEOUT  uzf_budget.uzf
  OBS6  FILEIN  steady_state.uzf.obs
  MOVER
  SIMULATE_ET
  LINEAR_GWET
  SIMULATE_GWSEEP
  UNSAT_ETWC
END options

BEGIN dimensions
  NUZFCELLS  23302
  NTRAILWAVES  16
  NWAVESETS  20
END dimensions

BEGIN packagedata
    OPEN/CLOSE  'steady_state.uzf_packagedata.txt'  FACTOR  1.0
END packagedata

BEGIN period  1
    OPEN/CLOSE  'steady_state.uzf_period1data.txt'  FACTOR  1.0
END period  1

