BEGIN griddata
  strt  LAYERED
    INTERNAL  FACTOR  1.0
         813.28000000     809.38800000     810.40300000     811.62900000     815.03500000     815.90800000     824.60700000     834.21600000     827.06000000     818.93700000     815.32700000     834.62700000     823.95000000     772.22700000     775.64600000     771.59400000     771.27100000     776.14600000     764.61100000     780.29900000
         775.89600000     773.34800000     771.69900000     770.67200000     765.62000000     770.54100000     763.07400000     765.04500000     766.94600000     767.00000000     766.12400000     763.25000000     759.32200000     769.83100000     764.22400000     773.56400000     776.04800000     770.87200000     763.80600000     756.95500000
         756.36600000     754.64100000     753.72500000     754.53300000     752.77900000     754.42300000     755.75200000     755.41800000     754.77500000     755.35200000     757.09700000     752.31700000     753.54900000     789.08700000     782.50000000     785.80400000     787.98200000     778.34300000     773.73500000     772.83400000
         775.51800000     795.81200000     807.94400000     810.64400000     806.38800000     812.45600000     808.54700000     806.26700000     812.63700000     806.12500000     810.95300000     811.07300000     812.75300000     807.65500000     805.30100000     808.71800000     811.47600000     813.59800000     756.03500000     764.56800000
         757.93600000     759.30900000     750.75800000     759.89700000     817.09700000     820.17600000     821.75200000     825.91700000     813.78800000     812.39000000     813.00800000     817.87000000     819.80000000     814.35200000     827.79500000     824.02300000     821.15000000     818.74200000     823.89200000     819.77200000
         822.40000000     825.68800000     825.72700000     825.95500000     824.62200000     825.23500000     824.91600000     824.91300000     832.89900000     831.38600000     834.80300000     834.93300000     830.70000000     834.62200000     827.41600000     839.90500000     844.79500000     830.84200000     840.50100000     854.84600000
         850.11300000     852.62000000     853.12300000     848.77400000     847.93800000     843.42400000     750.46000000     751.78500000     747.78200000     746.12500000     749.53100000     750.79500000     749.39900000     750.74500000     783.77800000     775.77900000     778.53200000     776.50100000     782.46800000     788.41900000
         783.15000000     779.31900000     755.17400000     750.77900000     750.02500000     748.90100000     754.19100000     770.17900000     768.84200000     769.02600000     778.28000000     772.36900000     779.09900000     796.81600000     794.78600000     796.01700000     796.13300000     795.36500000     793.76700000     797.21000000
         794.39500000     795.47200000     795.03700000     796.60600000     786.64300000     788.49200000     791.52800000     792.08300000     782.73300000     778.20300000     785.26600000     773.19700000     779.44400000     806.40600000     791.19500000     781.95200000     800.89900000     785.31800000     776.50700000     779.53200000
         793.11900000     784.16600000     820.78400000     823.81700000     824.17900000     820.53800000     820.71100000     820.54900000     763.91100000     761.26000000     771.35400000     760.32700000     771.53700000     766.13400000     764.09300000     757.34200000     767.99200000     765.23200000     772.05500000     762.72400000
         761.83600000     753.49300000     783.00900000     772.43700000     779.96400000     784.61100000     774.64400000     789.39300000     772.94100000     779.13100000     761.30400000     771.39300000     767.63400000     751.72300000     756.03800000     768.97100000     759.77100000     756.44700000     761.96700000     774.24700000
         770.63800000     764.61700000     763.10500000     767.26100000     771.34700000     758.26900000     760.49400000     753.40700000     786.44200000     785.89400000     802.59600000     810.77700000     809.76900000     811.49300000     809.24400000     812.98900000     801.70600000     808.16200000     813.67900000     770.64900000
         775.22200000     781.84900000     779.43300000     775.98900000     779.89100000     775.74700000     771.43400000     801.95600000     795.73800000     761.57000000     753.87800000     757.21600000     762.74400000     750.80400000     750.38600000     752.11700000     748.98500000     759.59700000     755.03700000     756.27700000
         752.68800000     752.03900000     747.37100000     787.94400000     769.72100000     773.00000000     764.82000000     768.32100000     785.42900000     769.09100000     777.48800000     778.24900000     782.16900000     774.99600000     772.84900000     772.34000000     768.51200000     782.55400000     776.23300000     780.08300000
         775.53600000     774.96900000     789.31400000     786.35900000     782.16400000     776.69700000     770.14900000     779.02000000     785.51500000     785.44500000     798.14300000     799.91400000     800.35200000     795.77400000     792.62400000     800.33600000     793.89800000     791.94400000     796.20600000     760.55000000
         762.33600000     758.13100000     763.15900000     754.46900000     765.19400000     765.15400000     760.58200000     761.21700000     762.98300000     761.93200000     764.93300000     762.16100000     742.53900000     742.65600000     747.93300000     742.75500000     745.03900000     747.25800000     748.76000000     747.03000000
         741.29100000     749.42200000     738.73100000     738.25700000     739.85200000     743.99800000     745.10500000     744.23600000     745.89300000     744.69300000     743.86200000     744.77600000     743.11800000     800.14300000     796.81500000     795.92400000     798.11400000     789.69100000     794.03800000     754.08700000
         751.27700000     750.81100000     749.64000000     752.28900000     747.75100000     744.28300000     747.80200000     743.72400000     745.19400000     744.18400000     742.18000000     746.03600000     743.68500000     760.87200000     752.77400000     759.49700000     758.59300000     753.73300000     751.18500000     760.22900000
         758.39000000     756.93900000     761.79900000     754.80900000     750.79400000     754.97800000     753.36100000     791.82200000     791.68700000     802.71700000     789.94500000     795.52800000     776.18000000     778.36400000     772.46000000     780.64100000     780.29000000     769.09700000     768.40300000     773.28300000
         772.07600000     775.35800000     776.33900000     803.04400000     811.08900000     807.91300000     800.02600000     801.66600000     814.20200000     802.01500000     799.06600000     804.31300000     794.95900000     797.05900000     809.56100000     808.70400000     798.99100000     803.09900000     802.97100000     807.24300000
         800.59400000     800.56400000     800.27400000     804.94400000     817.37800000     809.58700000     812.99600000     816.14400000     822.29800000     824.08400000     828.19300000     828.03300000     818.66400000     814.47300000     803.30200000     804.73800000     792.09600000     798.53100000     794.07100000     801.31300000
         789.64600000     798.54400000     757.82700000     763.10800000     758.53600000     754.78800000     769.92100000     750.38100000     774.04700000     773.72000000     770.97700000     776.55100000     769.61500000     798.91000000     798.82300000     797.41000000     780.59500000     779.55600000     775.77200000     782.42100000
         768.70200000     765.64200000     789.05400000     769.14500000     786.28100000     792.96600000     778.84400000     776.33100000     781.34600000     783.52500000     780.47800000     826.97000000     819.54200000     814.13900000     818.97900000     829.75600000     810.18200000     816.92100000     814.10700000     826.66000000
         831.56900000     836.21400000     822.94600000     822.17400000     824.37100000     820.32300000     819.24600000     826.12400000     839.63200000     847.06900000     824.01000000     838.31500000     843.24100000     837.24300000     832.36500000     824.92000000     817.96400000     816.20800000     824.36500000     827.70200000
         824.78000000     829.00300000     826.24300000     823.87600000     825.91000000     825.86900000     820.93000000     820.02500000     824.39000000     817.49100000     820.59400000     830.02700000     825.48400000     811.30600000     811.32500000     844.12600000     840.92000000     843.87000000     845.26600000     838.10000000
         827.27200000     825.08700000     747.13800000     750.36800000     762.82900000     763.11200000     768.80900000     762.73400000     759.77200000     762.92700000     764.29700000     761.63200000     774.33800000     769.39100000     762.98200000     760.08300000     771.49400000     777.88700000     756.46600000     752.13200000
         753.90900000     753.53600000     760.25300000     754.61300000     758.88700000     761.99200000     754.74400000     769.63400000     760.84800000     772.95300000     783.53800000     787.04500000     781.56200000     777.74700000     781.67500000     780.61300000     779.12800000     784.62000000     765.08200000     769.03200000
         762.81400000     770.11000000     768.83400000     760.84200000     763.44200000     766.30500000     768.37400000     771.62800000     775.25600000     784.94800000     792.98700000     785.95600000     791.15800000     797.39000000     799.98000000     784.90100000     765.57400000     761.70900000     759.13400000     760.37200000
         811.51400000     812.90000000     785.06500000     779.05700000     783.81100000     775.29700000     781.65700000     777.32100000     773.46400000     785.59800000     782.74300000     784.12200000     785.63900000     785.73800000     797.37000000     788.27900000     800.31800000     798.26400000     804.48800000     804.44300000
         805.21300000     801.59000000     797.35000000     799.38400000     787.79700000     790.65700000     786.96700000     768.84500000     781.04400000     771.87400000     784.83300000     789.04900000     787.42700000     785.90100000     788.22600000     787.11000000     783.16100000     783.04800000     786.88500000     792.31600000
         788.38700000     785.41400000     778.12100000     789.93000000     792.99100000     788.50100000     795.00900000     791.33800000     793.07700000     796.24200000     792.07400000     792.90000000     795.13300000     793.97800000     798.12300000     798.65600000     791.47800000     789.52700000     784.93900000     796.30300000
         795.39800000     794.56200000     794.64000000     795.68500000     795.36900000     776.99900000     776.86000000     782.14600000     788.86200000     776.80500000     785.30000000     783.10800000     787.57500000     785.77700000     788.77000000     791.85400000     791.74300000     779.25000000     801.12000000     804.36600000
         803.96400000     802.36600000     800.67000000     808.48200000     789.21800000     790.24200000     770.98800000     767.44500000     768.56100000     803.03800000     785.87300000     807.99100000     786.77600000     772.71400000     771.98700000     773.15900000     791.04700000     777.30600000     806.28200000     795.13500000
         800.29700000     796.29900000     792.25500000     791.69700000     789.51500000     795.80400000     790.04200000     789.92300000     802.07200000     797.50400000     797.17300000     802.84800000     794.75300000     796.41600000     799.99000000     794.25200000     797.88100000     800.24600000     796.56100000     794.84300000
         796.85800000     796.82900000     794.50100000     798.36900000     798.43200000     796.94900000     797.74700000     798.03900000     818.29500000     816.81000000     819.41800000     819.48700000     818.25200000     815.23700000     795.27400000     824.99300000     821.83200000     816.37100000     820.27200000     817.87300000
         816.21500000     815.56700000     816.12500000     818.75300000     818.16100000     797.06400000     792.14000000     758.23100000     763.64800000     750.20500000     769.34000000     774.86400000     766.71800000     800.70600000     801.14700000     800.55600000     802.31400000     802.57600000     800.26500000     795.69200000
         801.68400000     796.18500000     795.55800000     803.80600000     796.79200000     791.22700000     796.09800000     788.97300000     798.13900000     792.02700000     789.31200000     795.49300000     788.20500000     786.52900000     790.26000000     790.92800000     787.28800000     793.63400000     796.63100000     786.74900000
         782.23000000     789.18700000     783.25500000     782.40600000     784.45900000     779.44900000     775.64900000     781.12200000     786.74900000     766.80300000     763.32100000     764.17400000     750.28000000     764.88800000     761.45800000     754.66400000     776.07400000     775.18200000     774.66000000     776.82500000
         769.77300000     784.37700000     775.62600000     787.37100000     787.07500000     785.50100000     784.07200000     784.01100000     785.23200000     794.90300000     795.10900000     794.06100000     797.52900000     793.75900000     801.68300000     801.47600000     817.48300000     820.49200000     820.51600000     815.27700000
         811.62200000     754.35300000     752.36200000     749.68300000     752.40700000     756.92200000     755.74300000     751.53700000     767.82900000     772.13900000     759.67000000     767.39500000     762.99200000     764.27500000     754.30100000     749.56400000     748.81200000     748.70400000     749.45100000     743.85700000
         747.61900000     790.03400000     801.32500000     803.73300000     800.76200000     758.34700000     754.95900000     754.78700000     754.67100000     754.83100000     751.76000000     749.37000000     755.69500000     752.62500000     752.22700000     750.84800000     746.68300000     746.22600000     746.89800000     748.95700000
         743.85600000     741.73000000     753.25900000     764.39600000     759.99500000     758.28100000     760.10300000     758.31400000     758.90500000     761.47900000     763.24200000     760.79000000     766.54600000     758.78200000     760.68800000     760.06300000     765.42800000     762.48800000     760.82800000     787.32300000
         797.05800000     801.81000000     771.39700000     761.69300000     760.19400000     768.39100000     766.30000000     760.84400000     755.64400000     757.71700000     772.60200000     767.78300000     771.08100000     772.58200000     775.36700000     783.52500000     776.89100000     775.11700000     763.67700000     760.32000000
         765.80200000     796.55500000     792.76900000     791.62800000     793.59300000     764.34800000     805.67800000     796.36300000     791.37700000     751.60900000     746.26200000     744.09500000     760.51600000     755.57400000     762.71500000     760.15500000     751.24400000     758.67000000     758.96800000     753.80900000
         757.84700000     761.09700000     760.84300000     757.75300000     756.86000000     763.29700000     756.60400000     765.27600000     761.29800000     758.95200000     762.77500000     726.53300000     730.95000000     728.30300000     730.91300000     736.26900000     728.86800000     737.74800000     729.48300000     731.43600000
         741.44500000     728.32400000     742.70300000     736.47700000     743.33300000     743.43700000     742.34500000     744.18300000     742.46500000     743.46200000     742.44600000     742.09800000     741.65300000     741.97300000     746.79000000     745.43800000     743.84200000     744.59700000     748.42200000     749.36500000
         753.57200000     750.52300000     756.59000000     758.15000000     761.47200000     756.01000000     759.59000000     754.83900000     787.59700000     781.76100000     782.43700000     777.16200000     781.04800000     792.70800000     776.38700000     769.55200000     768.77000000     768.38500000     777.87000000     778.29600000
         772.04300000     780.55100000     773.10900000     764.46100000     783.24700000     782.71200000     758.53600000     748.17600000     755.52200000     750.42500000     753.12100000     751.07200000     749.80800000     749.68100000     749.61500000     797.10100000     797.22600000     799.36000000     796.47700000     789.05200000
         786.81100000     763.05000000     759.39800000     762.07400000     764.71800000     764.69900000     780.34200000     778.05100000     772.39400000     774.64300000     772.26000000     776.90700000     774.98300000     768.15000000     771.91500000     769.69600000     777.52800000     772.34200000     777.08700000     779.24400000
         784.28800000     807.58100000     822.47700000     811.04700000     807.67700000     806.26800000     805.16000000     801.78500000     801.04000000     802.73300000     802.39300000     800.03000000     793.27100000     804.01100000     795.26900000     805.76800000     800.43000000     785.83800000     800.25400000     797.98400000
         803.47500000     797.83400000     786.34900000     795.14800000     788.85400000     801.55900000     796.20600000     805.16000000     800.76900000     814.94300000     808.39600000     796.96300000     801.87400000     800.94900000     795.10700000     788.11100000     800.78100000     788.54500000     785.90000000     788.21300000
         812.04600000     763.37300000     801.06900000     796.14000000     795.79100000     792.18400000     796.44600000     793.72000000     793.45100000     792.82300000     798.57800000     809.86900000     801.84700000     803.19100000     791.33600000     780.98700000     784.96500000     778.42200000     771.38800000     773.13200000
         778.49200000     781.89300000     790.72800000     777.10700000     793.01300000     794.16600000     774.97100000     783.33500000     779.96600000     771.60600000     786.71100000     803.10300000     803.70100000     804.52300000     798.24000000     800.09300000     798.56000000     792.46000000     783.76600000     784.12900000
         786.77900000     786.81900000     796.05100000     828.80700000     830.37700000     818.36400000     829.45000000     821.23700000     820.70700000     820.65900000     819.69400000     824.71500000     820.64500000     808.10500000     811.90900000     811.65500000     814.48600000     812.26600000     811.65300000     811.23000000
         814.27700000     818.72900000     819.83100000     824.31900000     823.59700000     821.16500000     825.33000000     824.68100000     814.39200000     807.88000000     809.25200000     802.27800000     801.97600000     805.50200000     811.78000000     813.83700000     808.13900000     806.59200000     808.13300000     808.09700000
         811.86400000     803.45400000     798.23200000     813.43000000     805.52300000     812.15900000     811.22400000     804.48700000     808.32100000     814.18500000     817.11200000     774.90100000     775.38200000     780.12500000     778.51600000     774.08800000     774.39900000     780.16900000     779.87900000     777.92100000
         776.77000000     841.22500000     838.94000000     833.55800000     841.85800000     827.07800000     838.58500000     821.69900000     833.32100000     833.12000000     821.92100000     820.43600000     828.28600000     839.17700000     846.21900000     845.56000000     838.53900000     844.62000000     839.22200000     845.48400000
         847.38300000     848.68700000     830.94600000     821.14500000     822.22500000     822.20700000     818.57700000     813.98700000     821.43000000     823.83400000     812.78700000     809.55800000     813.88500000     824.13000000     808.60800000     810.46600000     815.05900000     818.87500000     795.87900000     798.83200000
         794.06900000     793.07500000     799.14300000     794.57500000     793.35600000     809.44100000     810.03600000     800.43800000     801.98200000     814.69300000     828.64000000     830.80700000     828.31400000     827.87100000     826.73200000     827.36100000     815.39100000     809.72100000     812.38700000     821.52600000
         816.41000000     808.84000000     798.91800000     797.67900000     750.07500000     754.11300000     747.86200000     752.04800000     825.03300000     821.87300000     829.14600000     831.80500000     826.42300000     826.02100000     831.81400000     830.71800000     836.64200000     823.46400000     827.65000000     832.21700000
         740.35100000     741.16600000     740.87800000     741.76700000     741.57600000     739.63000000     739.06100000     746.64300000     743.44700000     737.37600000     766.15900000     767.56800000     763.78700000     763.57700000     762.72500000     768.13500000     745.10400000     744.05100000     747.23900000     774.72700000
         767.10800000     767.00900000     783.36100000     788.17600000     783.55400000     789.73800000     779.50400000     784.20700000     767.71100000     767.50900000     746.20800000     742.91500000     781.09800000     781.74500000     786.86400000     822.60100000     827.18500000     826.97800000     824.46100000     844.64800000
         845.11300000     845.09500000     843.44300000     838.56800000     827.42300000     819.13900000     829.23700000     837.51700000     830.26300000     811.89400000     805.94100000     795.15900000     788.87100000     832.68900000     837.37300000     841.15200000     827.10500000     827.57500000     823.86400000     835.50500000
         821.92600000     799.92100000     804.23700000     803.90800000     803.91500000     774.96700000     791.06000000     790.66100000     779.81900000     797.36600000     794.75500000     787.32300000     779.10500000     791.76600000     780.79400000     779.79300000     777.62300000     785.35200000     787.50900000     778.34800000
         783.49400000     781.70200000     780.06000000     777.62000000     773.72200000     781.03000000     773.85000000     773.18100000     772.76500000     771.45300000     773.79300000     777.17900000     772.86800000     767.72400000     775.40100000     776.42100000     769.95300000     783.16000000     792.96300000     793.80300000
         787.56400000     826.38700000     836.82400000     835.45300000     837.65200000     838.67500000     831.63700000     835.40100000     833.92300000     834.83400000     829.97900000     780.59500000     783.75800000     781.95500000     780.34900000     782.43400000     782.86100000     781.34600000     785.06100000     776.64700000
         783.34100000     758.60300000     769.30100000     769.78000000     772.81900000     769.65200000     766.88800000     765.18200000     759.92700000     761.11800000     759.26800000     758.93900000     796.64400000     798.69100000     796.82900000     795.28600000     792.96500000     792.20600000     790.22300000     791.67000000
         795.86800000     793.44700000     793.17800000     794.55800000     792.09300000     790.48000000     791.75200000     790.42300000     792.18300000     786.35400000     786.70400000     787.72400000     788.51200000     785.69000000     797.31300000     799.71200000     799.43700000     788.90600000     788.16600000     785.15000000
         788.17900000     790.52600000     791.06900000     793.45200000     771.40400000     764.51000000     781.27800000     772.22400000     781.36300000     787.97700000     782.38000000     797.55300000     796.12600000     797.49200000     794.54900000     792.49100000     794.57700000     796.39800000     801.17500000     801.99700000
         792.14300000     796.15400000     798.82600000     794.65500000     803.11200000     826.68700000     805.64800000     804.24600000     806.78000000     803.54300000     808.08700000     802.59400000     802.15300000     798.75600000     802.80900000     798.61100000     824.41500000     824.50700000     823.32300000     822.72000000
         820.86800000     818.29900000     817.49300000     823.02900000     807.03300000     803.73800000     800.66100000     803.02800000     804.19700000     794.73500000     800.59200000     795.34500000     795.62800000     738.51900000     736.88400000     734.71200000     740.60700000     737.03100000     738.36500000     739.93500000
         732.52500000     752.58400000     757.01100000     755.59600000     753.86900000     757.35800000     776.42500000     771.70900000     770.70800000     799.04700000     800.08000000     800.04000000     799.66400000     798.95100000     787.80700000     788.72500000     792.05800000     790.27800000     789.83200000     791.98300000
         789.27000000     784.42400000     784.02400000     787.79800000     785.10200000     786.54700000     785.42800000     787.14600000     789.30500000     788.19900000     788.19800000     785.23900000     786.21800000     786.35100000     791.69000000     785.78000000     749.36300000     759.69900000     751.05600000     743.66600000
         757.99700000     772.31900000     771.57200000     774.44800000     782.76200000     768.21800000     764.74200000     772.64600000     762.73800000     763.85700000     752.13600000     750.45000000     752.69700000     744.88300000     747.97300000     767.33900000     767.12200000     771.42100000     779.74600000     773.05900000
         769.30900000     770.18000000     762.56600000     766.02100000     768.49000000     787.15700000     776.88900000     780.25000000     779.72800000     781.80200000     767.11400000     822.08200000     814.57600000     777.57400000     761.42100000     757.98600000     770.21300000     765.34700000     747.78000000     742.62300000
         755.28700000     757.80800000     757.36700000     764.91400000     761.82400000     753.88300000     759.90500000     760.28000000     762.40800000     755.95100000     764.26000000     762.90500000     741.42900000     742.55800000     745.21600000     742.64600000     741.28400000     746.33000000     747.90000000     746.28900000
         747.76600000     743.46500000     753.73900000     746.58600000     755.24800000     757.09900000     758.39000000     760.80300000     762.31700000     755.72700000     760.43900000     768.84400000     757.60300000     761.34400000     754.81500000     785.49700000     786.78500000     783.36100000     784.59800000     802.89700000
         752.42100000     752.26500000     752.03400000     747.05500000     746.76900000     747.63800000     774.60700000     769.97100000     768.15300000     766.68600000     768.45700000     767.44700000     762.79700000     770.88800000     767.81900000     755.11300000     755.35200000     752.64600000     755.98300000     756.04900000
         762.01800000     762.72100000     774.12000000     775.86700000     777.45900000     769.62800000     776.34600000     777.10700000     780.77200000     760.35000000     763.55100000     764.54500000     765.72900000     763.94500000     765.22900000     765.88400000     762.06700000     778.33200000     772.87300000     773.88500000
         780.65200000     792.60500000     792.23300000     788.92200000     786.38900000     795.26200000     785.11500000     782.20200000     786.20700000     785.11100000     791.26000000     788.74800000     739.51500000     741.72000000     760.89400000     759.01900000     749.94600000     754.08800000     754.24700000     756.40100000
         749.34400000     754.09200000     743.82900000     760.09300000     752.38300000     756.58600000     759.09900000     757.90600000     762.80100000     771.03100000     754.21100000     746.82000000     743.65500000     748.80200000     746.38200000     743.51300000     740.27100000     736.80900000     743.19300000     737.11000000
         733.97200000     745.98800000     745.06300000     735.14500000     745.63200000     729.34600000     729.11700000     732.88500000     726.88400000     727.10900000     727.48800000     727.78000000     740.50400000     741.23300000     737.68200000     737.61600000     744.08000000     740.98000000     740.73900000     744.30800000
         731.61400000     731.21600000     739.74900000     730.99400000     739.86800000     740.69900000     741.12600000     741.16000000     739.93100000     737.76600000     751.35200000     751.73500000     746.85100000     747.05700000     747.29700000     747.17500000     749.85500000     746.66200000     747.75800000     732.56900000
         729.06400000     729.38400000     737.11900000     729.26300000     730.03900000     739.07500000     738.05100000     732.23600000     731.64400000     730.78900000     741.63000000     741.96500000     739.00500000     744.05100000     742.08400000     748.70900000     745.48500000     744.19500000     755.39500000     745.76400000
         747.55200000     749.11500000     750.12900000     752.90900000     753.88900000     749.95800000     753.01600000     758.19600000     752.01700000     752.91000000     748.47400000     758.22300000     753.39100000     779.99000000     770.72500000     773.90400000     774.61100000     749.44800000     746.10500000     748.79700000
         748.14100000     748.91400000     755.96700000     746.30800000     766.08500000     758.23700000     763.32900000     762.78300000     767.46900000     761.37200000     758.85900000     766.32600000     766.63900000     776.74700000     770.55600000     768.81500000     764.29200000     763.83400000     781.25500000     780.33400000