BEGIN options
  BUDGET  FILEOUT  steady_state.cbc
  HEAD  FILEOUT  steady_state.hds
END options

BEGIN period  1
  SAVE  HEAD  LAST
  SAVE  BUDGET  LAST
  PRINT  HEAD  LAST
  PRINT  BUDGET  LAST
END period  1

