BEGIN options
  PRINT_OPTION  summary
  COMPLEXITY  complex
END options

BEGIN nonlinear
  OUTER_DVCLOSE       0.50000000
END nonlinear

BEGIN linear
  INNER_DVCLOSE       0.50000000
END linear

