BEGIN options
END options

BEGIN dimensions
  MAXMVR  69895
  MAXPACKAGES  2
END dimensions

BEGIN packages
  UZF
  SFR
END packages

BEGIN period  1
  UZF  1  UZF  2  FACTOR       0.52500000
  UZF  1  UZF  3  FACTOR       0.40900000
  UZF  1  UZF  4  FACTOR       0.06600000
  UZF  2  UZF  75  FACTOR       0.21000000
  UZF  2  UZF  416  FACTOR       0.37200000
  UZF  2  UZF  1001  FACTOR       0.41800000
  UZF  3  UZF  2  FACTOR       0.03600000
  UZF  3  UZF  988  FACTOR       0.22600000
  UZF  3  UZF  994  FACTOR       0.24000000
  UZF  3  UZF  1001  FACTOR       0.49800000
  UZF  4  UZF  2  FACTOR       0.62600000
  UZF  4  UZF  74  FACTOR       0.37400000
  UZF  5  UZF  1  FACTOR       0.37400000
  UZF  5  UZF  4  FACTOR       0.37700000
  UZF  5  UZF  71  FACTOR       0.24900000
  UZF  6  UZF  1  FACTOR       0.10900000
  UZF  6  UZF  3  FACTOR       0.27500000
  UZF  6  UZF  5  FACTOR       0.06000000
  UZF  6  UZF  984  FACTOR       0.20600000
  UZF  6  UZF  985  FACTOR       0.25600000
  UZF  6  UZF  1801  FACTOR       0.09400000
  UZF  7  UZF  10  FACTOR       0.25700000
  UZF  7  UZF  11  FACTOR       0.68400000
  UZF  7  UZF  13  FACTOR       0.05900000
  UZF  8  UZF  7  FACTOR       0.69000000
  UZF  8  UZF  9  FACTOR       0.31000000
  UZF  9  UZF  7  FACTOR       0.32500000
  UZF  9  UZF  10  FACTOR       0.67500000
  UZF  10  UZF  11  FACTOR       0.51400000
  UZF  10  UZF  98  FACTOR       0.16000000
  UZF  10  UZF  494  FACTOR       0.32600000
  UZF  11  UZF  494  FACTOR       0.30300000
  UZF  11  UZF  1178  FACTOR       0.69700000
  UZF  12  UZF  7  FACTOR       0.52000000
  UZF  12  UZF  8  FACTOR       0.05000000
  UZF  12  UZF  13  FACTOR       0.29900000
  UZF  12  UZF  118  FACTOR       0.13100000
  UZF  13  UZF  11  FACTOR       0.59500000
  UZF  13  UZF  1177  FACTOR       0.30900000
  UZF  13  UZF  1180  FACTOR       0.09600000
  UZF  14  UZF  16  FACTOR       0.02900000
  UZF  14  UZF  18  FACTOR       0.16200000
  UZF  14  UZF  19  FACTOR       0.80900000
  UZF  15  UZF  14  FACTOR       0.27700000
  UZF  15  UZF  16  FACTOR       0.34400000
  UZF  15  UZF  59  FACTOR       0.22200000
  UZF  15  UZF  60  FACTOR       0.15600000
  UZF  16  UZF  19  FACTOR       0.37800000
  UZF  16  UZF  219  FACTOR       0.35900000
  UZF  16  UZF  224  FACTOR       0.23000000
  UZF  16  UZF  225  FACTOR       0.03300000
  UZF  17  UZF  14  FACTOR       0.30200000
  UZF  17  UZF  18  FACTOR       0.69800000
  UZF  18  UZF  19  FACTOR       0.74800000
  UZF  18  UZF  220  FACTOR       0.25200000
  UZF  19  UZF  219  FACTOR       1.00000000
  UZF  20  UZF  14  FACTOR       0.22100000
  UZF  20  UZF  15  FACTOR       0.09200000
  UZF  20  UZF  21  FACTOR       0.23100000
  UZF  20  UZF  61  FACTOR       0.15000000
  UZF  20  UZF  757  FACTOR       0.02800000
  UZF  20  UZF  758  FACTOR       0.18500000
  UZF  20  UZF  759  FACTOR       0.09300000
  UZF  21  UZF  14  FACTOR       0.61500000
  UZF  21  UZF  17  FACTOR       0.38500000
  UZF  22  UZF  17  FACTOR       0.71500000
  UZF  22  UZF  21  FACTOR       0.13300000
  UZF  22  UZF  23  FACTOR       0.12100000
  UZF  22  UZF  383  FACTOR       0.03200000
  UZF  23  UZF  17  FACTOR       0.24800000
  UZF  23  UZF  24  FACTOR       0.11900000
  UZF  23  UZF  379  FACTOR       0.20900000
  UZF  23  UZF  540  FACTOR       0.42400000
  UZF  24  UZF  17  FACTOR       0.16000000
  UZF  24  UZF  18  FACTOR       0.49000000
  UZF  24  UZF  530  FACTOR       0.09100000
  UZF  24  UZF  540  FACTOR       0.22500000
  UZF  24  UZF  542  FACTOR       0.03400000
  UZF  25  UZF  27  FACTOR       0.11300000
  UZF  25  UZF  28  FACTOR       0.01900000
  UZF  25  UZF  29  FACTOR       0.40900000
  UZF  25  UZF  30  FACTOR       0.20300000
  UZF  25  UZF  31  FACTOR       0.25500000
  UZF  26  UZF  25  FACTOR       0.28700000
  UZF  26  UZF  27  FACTOR       0.40400000
  UZF  26  UZF  28  FACTOR       0.29800000
  UZF  26  UZF  240  FACTOR       0.01200000
  UZF  27  UZF  30  FACTOR       0.17400000
  UZF  27  UZF  1495  FACTOR       0.19100000
  UZF  27  UZF  1496  FACTOR       0.63400000
  UZF  28  UZF  29  FACTOR       0.81300000
  UZF  28  UZF  866  FACTOR       0.18700000
  UZF  29  UZF  31  FACTOR       0.09200000
  UZF  29  UZF  883  FACTOR       0.10100000
  UZF  29  UZF  887  FACTOR       0.64900000
  UZF  29  UZF  1504  FACTOR       0.15700000
  UZF  30  UZF  31  FACTOR       0.04400000
  UZF  30  UZF  1496  FACTOR       0.24500000
  UZF  30  UZF  1512  FACTOR       0.31400000
  UZF  30  UZF  2431  FACTOR       0.24500000
  UZF  30  UZF  3547  FACTOR       0.15200000
  UZF  31  UZF  1504  FACTOR       0.17600000
  UZF  31  UZF  1511  FACTOR       0.28700000
  UZF  31  UZF  1512  FACTOR       0.53700000
  UZF  32  UZF  300  FACTOR       0.63400000
  UZF  32  UZF  303  FACTOR       0.36600000
  UZF  33  UZF  360  FACTOR       0.22400000
  UZF  33  UZF  362  FACTOR       0.26100000
  UZF  33  UZF  947  FACTOR       0.51500000
  UZF  34  UZF  33  FACTOR       0.34800000
  UZF  34  UZF  35  FACTOR       0.22000000
  UZF  34  UZF  39  FACTOR       0.43200000
  UZF  35  UZF  33  FACTOR       0.41200000
  UZF  35  UZF  947  FACTOR       0.58800000
  UZF  36  UZF  34  FACTOR       0.15500000
  UZF  36  UZF  35  FACTOR       0.46300000
  UZF  36  UZF  1480  FACTOR       0.00300000
  UZF  36  UZF  1747  FACTOR       0.37900000
  UZF  37  UZF  34  FACTOR       0.40800000
  UZF  37  UZF  36  FACTOR       0.29300000
  UZF  37  UZF  38  FACTOR       0.29900000
  UZF  38  UZF  34  FACTOR       0.09000000
  UZF  38  UZF  39  FACTOR       0.38300000
  UZF  38  UZF  1491  FACTOR       0.42300000
  UZF  38  UZF  1715  FACTOR       0.10300000
  UZF  39  UZF  33  FACTOR       0.34100000
  UZF  39  UZF  360  FACTOR       0.36900000
  UZF  39  UZF  363  FACTOR       0.29000000
  UZF  40  UZF  43  FACTOR       0.18200000
  UZF  40  UZF  44  FACTOR       0.32100000
  UZF  40  UZF  45  FACTOR       0.49700000
  UZF  41  UZF  40  FACTOR       0.11800000
  UZF  41  UZF  42  FACTOR       0.10500000
  UZF  41  UZF  45  FACTOR       0.29800000
  UZF  41  UZF  355  FACTOR       0.17600000
  UZF  41  UZF  359  FACTOR       0.30300000
  UZF  42  UZF  40  FACTOR       0.25900000
  UZF  42  UZF  43  FACTOR       0.64300000
  UZF  42  UZF  46  FACTOR       0.09800000
  UZF  43  UZF  44  FACTOR       0.14500000
  UZF  43  UZF  340  FACTOR       0.31800000
  UZF  43  UZF  344  FACTOR       0.53700000
  UZF  44  UZF  340  FACTOR       0.07900000
  UZF  44  UZF  341  FACTOR       0.21900000
  UZF  44  UZF  1740  FACTOR       0.25800000
  UZF  44  UZF  1742  FACTOR       0.14600000
  UZF  44  UZF  2669  FACTOR       0.29700000
  UZF  45  UZF  44  FACTOR       0.02400000
  UZF  45  UZF  1739  FACTOR       0.35800000
  UZF  45  UZF  1740  FACTOR       0.34400000
  UZF  45  UZF  2636  FACTOR       0.27400000
  UZF  46  UZF  43  FACTOR       0.29300000
  UZF  46  UZF  47  FACTOR       0.18500000
  UZF  46  UZF  48  FACTOR       0.21200000
  UZF  46  UZF  49  FACTOR       0.28000000
  UZF  46  UZF  50  FACTOR       0.03000000
  UZF  47  UZF  53  FACTOR       0.65400000
  UZF  47  UZF  366  FACTOR       0.34600000
  UZF  48  UZF  47  FACTOR       0.02600000
  UZF  48  UZF  49  FACTOR       0.13300000
  UZF  48  UZF  52  FACTOR       0.60300000
  UZF  48  UZF  53  FACTOR       0.23800000
  UZF  49  UZF  43  FACTOR       0.01300000
  UZF  49  UZF  52  FACTOR       0.24100000
  UZF  49  UZF  344  FACTOR       0.36400000
  UZF  49  UZF  365  FACTOR       0.38200000
  UZF  50  UZF  47  FACTOR       0.37100000
  UZF  50  UZF  367  FACTOR       0.38400000
  UZF  50  UZF  2704  FACTOR       0.24400000
  UZF  51  UZF  41  FACTOR       0.09800000
  UZF  51  UZF  42  FACTOR       0.14500000
  UZF  51  UZF  46  FACTOR       0.19200000
  UZF  51  UZF  50  FACTOR       0.22600000
  UZF  51  UZF  2704  FACTOR       0.34000000
  UZF  52  UZF  365  FACTOR       0.30200000
  UZF  52  UZF  955  FACTOR       0.28600000
  UZF  52  UZF  5779  FACTOR       0.28300000
  UZF  52  UZF  5780  FACTOR       0.12900000
  UZF  53  UZF  52  FACTOR       0.21600000
  UZF  53  UZF  1748  FACTOR       0.27000000
  UZF  53  UZF  1750  FACTOR       0.18200000
  UZF  53  UZF  1751  FACTOR       0.33300000
  UZF  54  UZF  55  FACTOR       0.64100000
  UZF  54  UZF  56  FACTOR       0.20700000
  UZF  54  UZF  57  FACTOR       0.15200000
  UZF  55  UZF  36  FACTOR       0.59600000
  UZF  55  UZF  37  FACTOR       0.26400000
  UZF  55  UZF  58  FACTOR       0.14000000
  UZF  56  UZF  37  FACTOR       0.67900000
  UZF  56  UZF  55  FACTOR       0.32100000
  UZF  57  UZF  55  FACTOR       0.19300000
  UZF  57  UZF  58  FACTOR       0.31400000
  UZF  57  UZF  762  FACTOR       0.13800000
  UZF  57  UZF  1479  FACTOR       0.35500000
  UZF  58  UZF  36  FACTOR       0.38500000
  UZF  58  UZF  1479  FACTOR       0.11100000
  UZF  58  UZF  1480  FACTOR       0.50400000
  UZF  59  UZF  16  FACTOR       0.09100000
  UZF  59  UZF  225  FACTOR       0.09700000
  UZF  59  UZF  374  FACTOR       0.04100000
  UZF  59  UZF  761  FACTOR       0.34200000
  UZF  59  UZF  1468  FACTOR       0.24700000
  UZF  59  UZF  3497  FACTOR       0.18300000
  UZF  60  UZF  59  FACTOR       0.12700000
  UZF  60  UZF  373  FACTOR       0.60000000
  UZF  60  UZF  374  FACTOR       0.27300000
  UZF  61  UZF  15  FACTOR       0.00200000
  UZF  61  UZF  60  FACTOR       0.10300000
  UZF  61  UZF  373  FACTOR       0.25100000
  UZF  61  UZF  1781  FACTOR       0.20000000
  UZF  61  UZF  1782  FACTOR       0.22700000
  UZF  61  UZF  1783  FACTOR       0.21700000
  UZF  62  UZF  418  FACTOR       0.39600000
  UZF  62  UZF  422  FACTOR       0.43000000
  UZF  62  UZF  1023  FACTOR       0.17400000
  UZF  63  UZF  62  FACTOR       0.74700000
  UZF  63  UZF  65  FACTOR       0.25300000
  UZF  64  UZF  62  FACTOR       0.51200000
  UZF  64  UZF  63  FACTOR       0.17600000
  UZF  64  UZF  68  FACTOR       0.31200000
  UZF  65  UZF  62  FACTOR       0.29300000
  UZF  65  UZF  1023  FACTOR       0.43300000
  UZF  65  UZF  1031  FACTOR       0.27400000
  UZF  66  UZF  63  FACTOR       0.26100000
  UZF  66  UZF  65  FACTOR       0.52200000
  UZF  66  UZF  1032  FACTOR       0.21700000
  UZF  67  UZF  63  FACTOR       0.42000000
  UZF  67  UZF  64  FACTOR       0.28900000
  UZF  67  UZF  66  FACTOR       0.29100000
  UZF  68  UZF  62  FACTOR       0.25600000
  UZF  68  UZF  417  FACTOR       0.44600000
  UZF  68  UZF  418  FACTOR       0.29800000
  UZF  69  UZF  64  FACTOR       0.43300000
  UZF  69  UZF  67  FACTOR       0.21400000
  UZF  69  UZF  70  FACTOR       0.35300000
  UZF  70  UZF  64  FACTOR       0.02100000
  UZF  70  UZF  68  FACTOR       0.09900000
  UZF  70  UZF  417  FACTOR       0.35400000
  UZF  70  UZF  420  FACTOR       0.32200000
  UZF  70  UZF  1017  FACTOR       0.16500000
  UZF  70  UZF  1841  FACTOR       0.03800000
  UZF  71  UZF  4  FACTOR       1.00000000
  UZF  72  UZF  4  FACTOR       0.59000000
  UZF  72  UZF  71  FACTOR       0.41000000
  UZF  73  UZF  5  FACTOR       0.67300000
  UZF  73  UZF  1021  FACTOR       0.32700000
  UZF  74  UZF  2  FACTOR       0.14000000
  UZF  74  UZF  75  FACTOR       0.54700000
  UZF  74  UZF  76  FACTOR       0.31300000
  UZF  75  UZF  415  FACTOR       0.39000000
  UZF  75  UZF  416  FACTOR       0.61000000
  UZF  76  UZF  75  FACTOR       0.07900000
  UZF  76  UZF  415  FACTOR       0.17600000
  UZF  76  UZF  2139  FACTOR       0.40500000
  UZF  76  UZF  2141  FACTOR       0.34000000
  UZF  77  UZF  74  FACTOR       0.03100000
  UZF  77  UZF  76  FACTOR       0.16800000
  UZF  77  UZF  2141  FACTOR       0.53500000
  UZF  77  UZF  3112  FACTOR       0.26600000
  UZF  78  UZF  4  FACTOR       0.13000000
  UZF  78  UZF  74  FACTOR       0.26500000
  UZF  78  UZF  77  FACTOR       0.26900000
  UZF  78  UZF  2116  FACTOR       0.14400000
  UZF  78  UZF  2117  FACTOR       0.19200000
  UZF  79  UZF  81  FACTOR       0.26900000
  UZF  79  UZF  83  FACTOR       0.73100000
  UZF  80  UZF  79  FACTOR       0.17300000
  UZF  80  UZF  81  FACTOR       0.21900000
  UZF  80  UZF  82  FACTOR       0.03500000
  UZF  80  UZF  250  FACTOR       0.26100000
  UZF  80  UZF  806  FACTOR       0.31200000
  UZF  81  UZF  83  FACTOR       0.27800000
  UZF  81  UZF  808  FACTOR       0.24900000
  UZF  81  UZF  813  FACTOR       0.47200000
  UZF  82  UZF  79  FACTOR       0.81300000
  UZF  82  UZF  84  FACTOR       0.18700000
  UZF  83  UZF  808  FACTOR       0.11100000
  UZF  83  UZF  812  FACTOR       0.88900000
  UZF  84  UZF  79  FACTOR       0.15800000
  UZF  84  UZF  83  FACTOR       0.56100000
  UZF  84  UZF  823  FACTOR       0.22100000
  UZF  84  UZF  825  FACTOR       0.06000000
  UZF  85  UZF  89  FACTOR       0.43100000
  UZF  85  UZF  90  FACTOR       0.39700000
  UZF  85  UZF  91  FACTOR       0.17200000
  UZF  86  UZF  85  FACTOR       0.23000000
  UZF  86  UZF  91  FACTOR       0.38800000
  UZF  86  UZF  94  FACTOR       0.38200000
  UZF  87  UZF  85  FACTOR       0.56100000
  UZF  87  UZF  86  FACTOR       0.12600000
  UZF  87  UZF  88  FACTOR       0.31200000
  UZF  87  UZF  92  FACTOR       0.00100000
  UZF  88  UZF  85  FACTOR       0.11200000
  UZF  88  UZF  89  FACTOR       0.35600000
  UZF  88  UZF  408  FACTOR       0.31800000
  UZF  88  UZF  414  FACTOR       0.21300000
  UZF  89  UZF  67  FACTOR       0.81000000
  UZF  89  UZF  405  FACTOR       0.19000000
  UZF  90  UZF  89  FACTOR       0.03900000
  UZF  90  UZF  405  FACTOR       0.24400000
  UZF  90  UZF  406  FACTOR       0.35000000
  UZF  90  UZF  982  FACTOR       0.36800000
  UZF  91  UZF  90  FACTOR       0.26300000
  UZF  91  UZF  982  FACTOR       0.73700000
  UZF  92  UZF  86  FACTOR       0.83100000
  UZF  92  UZF  93  FACTOR       0.16900000
  UZF  93  UZF  86  FACTOR       0.09200000
  UZF  93  UZF  94  FACTOR       0.80400000
  UZF  93  UZF  452  FACTOR       0.10400000
  UZF  94  UZF  91  FACTOR       0.01500000
  UZF  94  UZF  233  FACTOR       0.39800000
  UZF  94  UZF  239  FACTOR       0.12800000
  UZF  94  UZF  982  FACTOR       0.45900000
  UZF  95  UZF  96  FACTOR       0.77700000
  UZF  95  UZF  460  FACTOR       0.22300000
  UZF  96  UZF  10  FACTOR       0.43400000
  UZF  96  UZF  97  FACTOR       0.12700000
  UZF  96  UZF  98  FACTOR       0.43900000
  UZF  97  UZF  98  FACTOR       0.80400000
  UZF  97  UZF  100  FACTOR       0.19600000
  UZF  98  UZF  494  FACTOR       0.46000000
  UZF  98  UZF  495  FACTOR       0.54000000
  UZF  99  UZF  96  FACTOR       0.27500000
  UZF  99  UZF  97  FACTOR       0.72500000
  UZF  100  UZF  98  FACTOR       0.16600000
  UZF  100  UZF  495  FACTOR       0.42800000
  UZF  100  UZF  1110  FACTOR       0.27200000
  UZF  100  UZF  1111  FACTOR       0.13400000
  UZF  101  UZF  97  FACTOR       0.09000000
  UZF  101  UZF  100  FACTOR       0.19400000
  UZF  101  UZF  464  FACTOR       0.01500000
  UZF  101  UZF  1111  FACTOR       0.46700000
  UZF  101  UZF  1870  FACTOR       0.23400000
  UZF  102  UZF  97  FACTOR       0.41500000
  UZF  102  UZF  99  FACTOR       0.17100000
  UZF  102  UZF  101  FACTOR       0.33000000
  UZF  102  UZF  106  FACTOR       0.03000000
  UZF  102  UZF  107  FACTOR       0.05400000
  UZF  103  UZF  99  FACTOR       0.98000000
  UZF  103  UZF  102  FACTOR       0.02000000
  UZF  104  UZF  102  FACTOR       0.26000000
  UZF  104  UZF  106  FACTOR       0.74000000
  UZF  105  UZF  1084  FACTOR       1.00000000
  UZF  106  UZF  105  FACTOR       0.47800000
  UZF  106  UZF  107  FACTOR       0.26100000
  UZF  106  UZF  108  FACTOR       0.26100000
  UZF  107  UZF  101  FACTOR       0.33100000
  UZF  107  UZF  463  FACTOR       0.27300000
  UZF  107  UZF  464  FACTOR       0.39600000
  UZF  108  UZF  105  FACTOR       0.07700000
  UZF  108  UZF  463  FACTOR       0.54400000
  UZF  108  UZF  465  FACTOR       0.15500000
  UZF  108  UZF  1084  FACTOR       0.22300000
  UZF  109  UZF  110  FACTOR       0.20200000
  UZF  109  UZF  112  FACTOR       0.23000000
  UZF  109  UZF  113  FACTOR       0.56700000
  UZF  110  UZF  112  FACTOR       1.00000000
  UZF  111  UZF  109  FACTOR       1.00000000
  UZF  112  UZF  113  FACTOR       0.10800000
  UZF  112  UZF  468  FACTOR       0.31300000
  UZF  112  UZF  471  FACTOR       0.57900000
  UZF  113  UZF  471  FACTOR       1.00000000
  UZF  114  UZF  109  FACTOR       0.19500000
  UZF  114  UZF  111  FACTOR       0.00300000
  UZF  114  UZF  113  FACTOR       0.56300000
  UZF  114  UZF  474  FACTOR       0.23900000
  UZF  115  UZF  1175  FACTOR       1.00000000
  UZF  116  UZF  8  FACTOR       0.66000000
  UZF  116  UZF  12  FACTOR       0.33200000
  UZF  116  UZF  462  FACTOR       0.00800000
  UZF  117  UZF  12  FACTOR       0.55900000
  UZF  117  UZF  116  FACTOR       0.25600000
  UZF  117  UZF  119  FACTOR       0.16500000
  UZF  117  UZF  1122  FACTOR       0.02100000
  UZF  118  UZF  13  FACTOR       0.36900000
  UZF  118  UZF  1180  FACTOR       0.49100000
  UZF  118  UZF  1877  FACTOR       0.14000000
  UZF  119  UZF  12  FACTOR       0.25900000
  UZF  119  UZF  118  FACTOR       0.31100000
  UZF  119  UZF  469  FACTOR       0.03400000
  UZF  119  UZF  1133  FACTOR       0.39600000
  UZF  120  UZF  121  FACTOR       0.13700000
  UZF  120  UZF  122  FACTOR       0.12900000
  UZF  120  UZF  1142  FACTOR       0.41500000
  UZF  120  UZF  1886  FACTOR       0.31900000
  UZF  121  UZF  122  FACTOR       0.06600000
  UZF  121  UZF  123  FACTOR       0.13000000
  UZF  121  UZF  124  FACTOR       0.20600000
  UZF  121  UZF  125  FACTOR       0.59900000
  UZF  122  UZF  123  FACTOR       0.01000000
  UZF  122  UZF  1135  FACTOR       0.24500000
  UZF  122  UZF  1136  FACTOR       0.49100000
  UZF  122  UZF  1142  FACTOR       0.25500000
  UZF  123  UZF  125  FACTOR       0.18700000
  UZF  123  UZF  1135  FACTOR       0.44100000
  UZF  123  UZF  1881  FACTOR       0.37200000
  UZF  124  UZF  125  FACTOR       1.00000000
  UZF  125  UZF  126  FACTOR       0.26800000
  UZF  125  UZF  1881  FACTOR       0.18300000
  UZF  125  UZF  1882  FACTOR       0.54900000
  UZF  126  UZF  1882  FACTOR       1.00000000
  UZF  127  UZF  129  FACTOR       0.25500000
  UZF  127  UZF  130  FACTOR       0.44400000
  UZF  127  UZF  131  FACTOR       0.14000000
  UZF  127  UZF  133  FACTOR       0.16100000
  UZF  128  UZF  127  FACTOR       0.10400000
  UZF  128  UZF  129  FACTOR       0.16500000
  UZF  128  UZF  133  FACTOR       0.31300000
  UZF  128  UZF  145  FACTOR       0.14200000
  UZF  128  UZF  146  FACTOR       0.27600000
  UZF  129  UZF  130  FACTOR       0.23200000
  UZF  129  UZF  503  FACTOR       0.76800000
  UZF  130  UZF  503  FACTOR       0.22000000
  UZF  130  UZF  1208  FACTOR       0.20400000
  UZF  130  UZF  1209  FACTOR       0.31900000
  UZF  130  UZF  1210  FACTOR       0.25700000
  UZF  131  UZF  130  FACTOR       0.20000000
  UZF  131  UZF  1208  FACTOR       0.30700000
  UZF  131  UZF  2005  FACTOR       0.21200000
  UZF  131  UZF  2006  FACTOR       0.28100000
  UZF  132  UZF  127  FACTOR       0.02700000
  UZF  132  UZF  131  FACTOR       0.05800000
  UZF  132  UZF  134  FACTOR       0.01900000
  UZF  132  UZF  2005  FACTOR       0.20500000
  UZF  132  UZF  2050  FACTOR       0.10100000
  UZF  132  UZF  2052  FACTOR       0.18300000
  UZF  132  UZF  2967  FACTOR       0.18900000
  UZF  132  UZF  2968  FACTOR       0.21900000
  UZF  133  UZF  146  FACTOR       0.03200000
  UZF  133  UZF  1217  FACTOR       0.17900000
  UZF  133  UZF  1218  FACTOR       0.67600000
  UZF  133  UZF  1219  FACTOR       0.11300000
  UZF  134  UZF  127  FACTOR       0.01100000
  UZF  134  UZF  133  FACTOR       0.09600000
  UZF  134  UZF  1219  FACTOR       0.35900000
  UZF  134  UZF  2050  FACTOR       0.23700000
  UZF  134  UZF  2051  FACTOR       0.26000000
  UZF  134  UZF  3049  FACTOR       0.03800000
  UZF  135  UZF  136  FACTOR       0.26100000
  UZF  135  UZF  137  FACTOR       0.17900000
  UZF  135  UZF  138  FACTOR       0.06100000
  UZF  135  UZF  141  FACTOR       0.06000000
  UZF  135  UZF  142  FACTOR       0.43900000
  UZF  136  UZF  970  FACTOR       0.11200000
  UZF  136  UZF  971  FACTOR       0.49700000
  UZF  136  UZF  1220  FACTOR       0.39100000
  UZF  137  UZF  136  FACTOR       0.29200000
  UZF  137  UZF  969  FACTOR       0.02500000
  UZF  137  UZF  970  FACTOR       0.30300000
  UZF  137  UZF  972  FACTOR       0.17300000
  UZF  137  UZF  1763  FACTOR       0.20800000
  UZF  138  UZF  137  FACTOR       0.44100000
  UZF  138  UZF  968  FACTOR       0.16500000
  UZF  138  UZF  969  FACTOR       0.39500000
  UZF  139  UZF  135  FACTOR       0.29100000
  UZF  139  UZF  138  FACTOR       0.39500000
  UZF  139  UZF  967  FACTOR       0.31500000
  UZF  140  UZF  135  FACTOR       0.33100000
  UZF  140  UZF  139  FACTOR       0.10900000
  UZF  140  UZF  141  FACTOR       0.39700000
  UZF  140  UZF  531  FACTOR       0.16300000
  UZF  141  UZF  142  FACTOR       0.65500000
  UZF  141  UZF  534  FACTOR       0.34500000
  UZF  142  UZF  136  FACTOR       0.38900000
  UZF  142  UZF  1220  FACTOR       0.61100000
  UZF  143  UZF  128  FACTOR       0.44300000
  UZF  143  UZF  144  FACTOR       0.35500000
  UZF  143  UZF  147  FACTOR       0.09900000
  UZF  143  UZF  228  FACTOR       0.10200000
  UZF  144  UZF  128  FACTOR       0.04700000
  UZF  144  UZF  145  FACTOR       0.13100000
  UZF  144  UZF  1457  FACTOR       0.07400000
  UZF  144  UZF  4505  FACTOR       0.42600000
  UZF  144  UZF  4507  FACTOR       0.32200000
  UZF  145  UZF  146  FACTOR       0.21200000
  UZF  145  UZF  1231  FACTOR       0.28100000
  UZF  145  UZF  4421  FACTOR       0.22500000
  UZF  145  UZF  4506  FACTOR       0.20200000
  UZF  145  UZF  4507  FACTOR       0.08000000
  UZF  146  UZF  1217  FACTOR       0.39900000
  UZF  146  UZF  1231  FACTOR       0.16900000
  UZF  146  UZF  1232  FACTOR       0.43200000
  UZF  147  UZF  128  FACTOR       0.19900000
  UZF  147  UZF  129  FACTOR       0.51200000
  UZF  147  UZF  504  FACTOR       0.28900000
  UZF  148  UZF  149  FACTOR       0.47000000
  UZF  148  UZF  150  FACTOR       0.53000000
  UZF  149  UZF  150  FACTOR       0.02100000
  UZF  149  UZF  2916  FACTOR       0.35700000
  UZF  149  UZF  2917  FACTOR       0.35300000
  UZF  149  UZF  2919  FACTOR       0.26900000
  UZF  150  UZF  1968  FACTOR       0.27700000
  UZF  150  UZF  1970  FACTOR       0.51400000
  UZF  150  UZF  2916  FACTOR       0.20900000
  UZF  151  UZF  148  FACTOR       0.19400000
  UZF  151  UZF  149  FACTOR       0.26800000
  UZF  151  UZF  152  FACTOR       0.04400000
  UZF  151  UZF  588  FACTOR       0.33200000
  UZF  151  UZF  2229  FACTOR       0.16200000
  UZF  152  UZF  148  FACTOR       0.17400000
  UZF  152  UZF  588  FACTOR       0.70000000
  UZF  152  UZF  590  FACTOR       0.12600000
  UZF  153  UZF  148  FACTOR       0.14900000
  UZF  153  UZF  150  FACTOR       0.41200000
  UZF  153  UZF  152  FACTOR       0.08900000
  UZF  153  UZF  1967  FACTOR       0.35000000
  UZF  154  UZF  156  FACTOR       0.63800000
  UZF  154  UZF  159  FACTOR       0.36200000
  UZF  155  UZF  154  FACTOR       1.00000000
  UZF  157  UZF  154  FACTOR       0.03700000
  UZF  157  UZF  156  FACTOR       0.37900000
  UZF  157  UZF  164  FACTOR       0.13300000
  UZF  157  UZF  167  FACTOR       0.28800000
  UZF  157  UZF  607  FACTOR       0.16400000
  UZF  158  UZF  154  FACTOR       0.11600000
  UZF  158  UZF  155  FACTOR       0.25900000
  UZF  158  UZF  159  FACTOR       0.62500000
  UZF  159  UZF  604  FACTOR       0.84500000
  UZF  159  UZF  605  FACTOR       0.15500000
  UZF  160  UZF  154  FACTOR       0.07300000
  UZF  160  UZF  157  FACTOR       0.03600000
  UZF  160  UZF  159  FACTOR       0.27400000
  UZF  160  UZF  605  FACTOR       0.37200000
  UZF  160  UZF  607  FACTOR       0.24500000
  UZF  162  UZF  161  FACTOR       0.01400000
  UZF  162  UZF  165  FACTOR       0.26000000
  UZF  162  UZF  166  FACTOR       0.55200000
  UZF  162  UZF  167  FACTOR       0.03600000
  UZF  162  UZF  168  FACTOR       0.13700000
  UZF  163  UZF  161  FACTOR       0.05700000
  UZF  163  UZF  162  FACTOR       0.03000000
  UZF  163  UZF  168  FACTOR       0.83000000
  UZF  163  UZF  2256  FACTOR       0.08400000
  UZF  164  UZF  156  FACTOR       0.12600000
  UZF  164  UZF  161  FACTOR       0.33900000
  UZF  164  UZF  162  FACTOR       0.09000000
  UZF  164  UZF  167  FACTOR       0.44400000
  UZF  165  UZF  166  FACTOR       0.04000000
  UZF  165  UZF  931  FACTOR       0.29000000
  UZF  165  UZF  2666  FACTOR       0.63900000
  UZF  165  UZF  2667  FACTOR       0.03000000
  UZF  166  UZF  930  FACTOR       0.52800000
  UZF  166  UZF  931  FACTOR       0.47200000
  UZF  167  UZF  165  FACTOR       0.32500000
  UZF  167  UZF  2667  FACTOR       0.32700000
  UZF  167  UZF  2668  FACTOR       0.34800000
  UZF  168  UZF  166  FACTOR       0.66000000
  UZF  168  UZF  929  FACTOR       0.34000000
  UZF  169  UZF  170  FACTOR       0.25300000
  UZF  169  UZF  171  FACTOR       0.49500000
  UZF  169  UZF  173  FACTOR       0.25100000
  UZF  170  UZF  171  FACTOR       0.30100000
  UZF  170  UZF  172  FACTOR       0.69900000
  UZF  171  UZF  172  FACTOR       0.17900000
  UZF  171  UZF  206  FACTOR       0.02500000
  UZF  171  UZF  647  FACTOR       0.26400000
  UZF  171  UZF  649  FACTOR       0.53300000
  UZF  172  UZF  649  FACTOR       0.32200000
  UZF  172  UZF  1368  FACTOR       0.08800000
  UZF  172  UZF  2262  FACTOR       0.21300000
  UZF  172  UZF  2264  FACTOR       0.37800000
  UZF  173  UZF  170  FACTOR       0.01000000
  UZF  173  UZF  172  FACTOR       0.57100000
  UZF  173  UZF  1368  FACTOR       0.42000000
  UZF  174  UZF  175  FACTOR       0.22100000
  UZF  174  UZF  176  FACTOR       0.37000000
  UZF  174  UZF  177  FACTOR       0.07900000
  UZF  174  UZF  640  FACTOR       0.04900000
  UZF  174  UZF  641  FACTOR       0.04600000
  UZF  174  UZF  645  FACTOR       0.23500000
  UZF  175  UZF  176  FACTOR       0.70200000
  UZF  175  UZF  178  FACTOR       0.29800000
  UZF  176  UZF  179  FACTOR       0.27100000
  UZF  176  UZF  656  FACTOR       0.31800000
  UZF  176  UZF  1367  FACTOR       0.12000000
  UZF  176  UZF  3274  FACTOR       0.29100000
  UZF  177  UZF  175  FACTOR       0.40700000
  UZF  177  UZF  178  FACTOR       0.38800000
  UZF  177  UZF  181  FACTOR       0.17500000
  UZF  177  UZF  642  FACTOR       0.03100000
  UZF  178  UZF  176  FACTOR       0.21300000
  UZF  178  UZF  179  FACTOR       0.44100000
  UZF  178  UZF  180  FACTOR       0.28600000
  UZF  178  UZF  182  FACTOR       0.05900000
  UZF  179  UZF  654  FACTOR       0.18800000
  UZF  179  UZF  655  FACTOR       0.56300000
  UZF  179  UZF  656  FACTOR       0.24900000
  UZF  180  UZF  179  FACTOR       0.27600000
  UZF  180  UZF  654  FACTOR       0.61200000
  UZF  180  UZF  658  FACTOR       0.11200000
  UZF  181  UZF  178  FACTOR       0.44400000
  UZF  181  UZF  182  FACTOR       0.53200000
  UZF  181  UZF  657  FACTOR       0.02400000
  UZF  182  UZF  180  FACTOR       0.25400000
  UZF  182  UZF  658  FACTOR       0.55200000
  UZF  182  UZF  1369  FACTOR       0.19400000
  UZF  183  UZF  186  FACTOR       0.68900000
  UZF  183  UZF  187  FACTOR       0.21900000
  UZF  183  UZF  188  FACTOR       0.09200000
  UZF  184  UZF  183  FACTOR       0.99200000
  UZF  184  UZF  1400  FACTOR       0.00800000
  UZF  185  UZF  183  FACTOR       0.12300000
  UZF  185  UZF  184  FACTOR       0.06100000
  UZF  185  UZF  186  FACTOR       0.21200000
  UZF  185  UZF  1403  FACTOR       0.42900000
  UZF  185  UZF  1404  FACTOR       0.17600000
  UZF  186  UZF  704  FACTOR       0.10600000
  UZF  186  UZF  1402  FACTOR       0.15000000
  UZF  186  UZF  1403  FACTOR       0.74400000
  UZF  187  UZF  186  FACTOR       0.58400000
  UZF  187  UZF  704  FACTOR       0.41600000
  UZF  188  UZF  187  FACTOR       1.00000000
  UZF  189  UZF  190  FACTOR       0.12900000
  UZF  189  UZF  192  FACTOR       0.87100000
  UZF  190  UZF  192  FACTOR       0.10800000
  UZF  190  UZF  202  FACTOR       0.20200000
  UZF  190  UZF  708  FACTOR       0.19500000
  UZF  190  UZF  709  FACTOR       0.02300000
  UZF  190  UZF  710  FACTOR       0.47300000
  UZF  191  UZF  189  FACTOR       0.41500000
  UZF  191  UZF  190  FACTOR       0.31900000
  UZF  191  UZF  193  FACTOR       0.10400000
  UZF  191  UZF  711  FACTOR       0.08100000
  UZF  191  UZF  2366  FACTOR       0.08100000
  UZF  192  UZF  196  FACTOR       0.49000000
  UZF  192  UZF  202  FACTOR       0.51000000
  UZF  193  UZF  189  FACTOR       0.21100000
  UZF  193  UZF  192  FACTOR       0.52000000
  UZF  193  UZF  194  FACTOR       0.26900000
  UZF  194  UZF  192  FACTOR       0.20000000
  UZF  194  UZF  195  FACTOR       0.30200000
  UZF  194  UZF  196  FACTOR       0.35800000
  UZF  194  UZF  197  FACTOR       0.14000000
  UZF  195  UZF  196  FACTOR       0.08600000
  UZF  195  UZF  201  FACTOR       0.13900000
  UZF  195  UZF  2339  FACTOR       0.38800000
  UZF  195  UZF  2340  FACTOR       0.38700000
  UZF  196  UZF  202  FACTOR       0.03000000
  UZF  196  UZF  2340  FACTOR       0.40500000
  UZF  196  UZF  2341  FACTOR       0.56500000
  UZF  197  UZF  195  FACTOR       0.30700000
  UZF  197  UZF  201  FACTOR       0.69300000
  UZF  198  UZF  194  FACTOR       0.07500000
  UZF  198  UZF  197  FACTOR       0.60300000