BEGIN options
  BOUNDNAMES
  SAVE_FLOWS
  STAGE  FILEOUT  sfr_stage.sfr
  BUDGET  FILEOUT  sfr_budget.sfr
  OBS6  FILEIN  steady_state.sfr.obs
  MOVER
  MAXIMUM_ITERATIONS  100
  MAXIMUM_DEPTH_CHANGE  1.00000000E-05
END options

BEGIN dimensions
  NREACHES  4132
END dimensions

BEGIN packagedata
  1  2 8276       5.15000000      10.00000000       0.00704000     799.18600000       0.60000000       0.01000000  0.035  1       1.00000000  0  allstreams
  2  2 5976       7.52000000      10.00000000       0.00829000     799.24400000       0.60000000       0.01000000  0.035  2       1.00000000  0  allstreams
  3  1 5975      12.03000000      10.00000000       0.00832000     799.23100000       0.60000000       0.01000000  0.035  2       1.00000000  0  allstreams
  4  1 10701      11.75000000      10.00000000       0.04276000     799.55400000       0.60000000       0.01000000  0.035  2       1.00000000  0  allstreams
  5  1 10699       9.24000000      10.00000000       0.00558000     799.81000000       0.60000000       0.01000000  0.035  2       1.00000000  0  allstreams
  6  2 10700      11.69000000      10.00000000       0.03127000     799.61900000       0.60000000       0.01000000  0.035  2       1.00000000  0  allstreams
  7  2 8277      11.29000000      10.00000000       0.04938000     799.12800000       0.60000000       0.01000000  0.035  2       1.00000000  0  allstreams
  8  2 10705       5.28000000      10.00000000       0.03293000     798.76300000       0.60000000       0.01000000  0.035  2       1.00000000  0  allstreams
  9  2 8278      12.42000000      10.00000000       0.03704000     798.45700000       0.60000000       0.01000000  0.035  2       1.00000000  0  allstreams
  10  1 10706      13.00000000      10.00000000       0.03720000     797.99100000       0.60000000       0.01000000  0.035  2       1.00000000  0  allstreams
  11  2 13488      13.50000000      10.00000000       0.04901000     797.41500000       0.60000000       0.01000000  0.035  2       1.00000000  0  allstreams
  12  2 10711      13.25000000      10.00000000       0.04499000     796.74800000       0.60000000       0.01000000  0.035  2       1.00000000  0  allstreams
  13  2 13491      13.59000000      10.00000000       0.00137000     796.47500000       0.60000000       0.01000000  0.035  2       1.00000000  0  allstreams
  14  2 13501      13.55000000      10.00000000       0.00811000     796.40100000       0.60000000       0.01000000  0.035  2       1.00000000  0  allstreams
  15  1 10718      13.60000000      10.00000000       0.00857000     796.36200000       0.60000000       0.01000000  0.035  2       1.00000000  0  allstreams
  16  1 10719      11.97000000      10.00000000       0.03946000     796.05600000       0.60000000       0.01000000  0.035  2       1.00000000  0  allstreams
  17  1 13516       9.68000000      10.00000000       0.02182000     795.68200000       0.60000000       0.01000000  0.035  2       1.00000000  0  allstreams
  18  1 16299      11.39000000      10.00000000       0.00763000     795.58000000       0.60000000       0.01000000  0.035  2       1.00000000  0  allstreams
  19  1 18596      14.84000000      10.00000000       0.01572000     795.41200000       0.60000000       0.01000000  0.035  2       1.00000000  0  allstreams
  20  1 18597      14.25000000      10.00000000       0.02382000     795.09700000       0.60000000       0.01000000  0.035  2       1.00000000  0  allstreams
  21  1 13505      13.16000000      10.00000000       0.02371000     794.75000000       0.60000000       0.01000000  0.035  2       1.00000000  0  allstreams
  22  1 13506      11.85000000      10.00000000       0.00494000     794.60000000       0.60000000       0.01000000  0.035  2       1.00000000  0  allstreams
  23  1 16292       7.09000000      10.00000000       0.01618000     794.51300000       0.60000000       0.01000000  0.035  2       1.00000000  0  allstreams
  24  1 13509      11.79000000      10.00000000       0.01248000     794.36600000       0.60000000       0.01000000  0.035  2       1.00000000  0  allstreams
  25  1 13510      14.35000000      10.00000000       0.00310000     794.33600000       0.60000000       0.01000000  0.035  2       1.00000000  0  allstreams
  26  1 13512      12.96000000      10.00000000       0.00821000     794.29100000       0.60000000       0.01000000  0.035  2       1.00000000  0  allstreams
  27  1 18595       8.79000000      10.00000000       0.00819000     794.16300000       0.60000000       0.01000000  0.035  2       1.00000000  0  allstreams
  28  1 20336      11.78000000      10.00000000       0.01176000     794.12300000       0.60000000       0.01000000  0.035  2       1.00000000  0  allstreams
  29  1 16318      13.05000000      10.00000000       0.02127000     793.92500000       0.60000000       0.01000000  0.035  2       1.00000000  0  allstreams
  30  1 16315      11.49000000      10.00000000       0.01156000     793.67800000       0.60000000       0.01000000  0.035  2       1.00000000  0  allstreams
  31  1 16317       5.71000000      10.00000000       0.00887000     793.61200000       0.60000000       0.01000000  0.035  2       1.00000000  0  allstreams
  32  1 16322      10.27000000      10.00000000       0.01628000     793.49500000       0.60000000       0.01000000  0.035  2       1.00000000  0  allstreams
  33  1 20337       9.75000000      10.00000000       0.01616000     793.33300000       0.60000000       0.01000000  0.035  2       1.00000000  0  allstreams
  34  1 18601      11.95000000      10.00000000       0.00611000     793.25200000       0.60000000       0.01000000  0.035  2       1.00000000  0  allstreams
  35  1 16311      12.91000000      10.00000000       0.00737000     793.22700000       0.60000000       0.01000000  0.035  2       1.00000000  0  allstreams
  36  1 16310      11.62000000      10.00000000       0.01705000     793.15700000       0.60000000       0.01000000  0.035  2       1.00000000  0  allstreams
  37  1 18600       7.60000000      10.00000000       0.01126000     793.01600000       0.60000000       0.01000000  0.035  2       1.00000000  0  allstreams
  38  1 18599      11.73000000      10.00000000       0.02633000     792.82700000       0.60000000       0.01000000  0.035  2       1.00000000  0  allstreams
  39  1 18607      11.50000000      10.00000000       0.01125000     792.73400000       0.60000000       0.01000000  0.035  2       1.00000000  0  allstreams
  40  1 21570       5.88000000      10.00000000       0.01065000     792.73300000       0.60000000       0.01000000  0.035  2       1.00000000  0  allstreams
  41  1 20385      11.33000000      10.00000000       0.01727000     792.65600000       0.60000000       0.01000000  0.035  2       1.00000000  0  allstreams
  42  1 20384      14.04000000      10.00000000       0.00929000     792.41800000       0.60000000       0.01000000  0.035  2       1.00000000  0  allstreams
  43  1 20389      14.44000000      10.00000000       0.01435000     792.31300000       0.60000000       0.01000000  0.035  2       1.00000000  0  allstreams
  44  1 20388      14.37000000      10.00000000       0.01352000     792.08100000       0.60000000       0.01000000  0.035  2       1.00000000  0  allstreams
  45  1 21534      14.68000000      10.00000000       0.01369000     791.91000000       0.60000000       0.01000000  0.035  2       1.00000000  0  allstreams
  46  1 21535      14.74000000      10.00000000       0.01736000     791.67200000       0.60000000       0.01000000  0.035  2       1.00000000  0  allstreams
  47  1 22404      14.46000000      10.00000000       0.01665000     791.39700000       0.60000000       0.01000000  0.035  2       1.00000000  0  allstreams
  48  1 21494      14.47000000      10.00000000       0.02411000     791.13000000       0.60000000       0.01000000  0.035  2       1.00000000  0  allstreams
  49  1 21495      15.23000000      10.00000000       0.01638000     790.83300000       0.60000000       0.01000000  0.035  2       1.00000000  0  allstreams
  50  1 22892       9.69000000      10.00000000       0.00949000     790.65700000       0.60000000       0.01000000  0.035  2       1.00000000  0  allstreams
  51  1 22371      12.02000000      10.00000000       0.01610000     790.51000000       0.60000000       0.01000000  0.035  2       1.00000000  0  allstreams
  52  1 21496      12.48000000      10.00000000       0.01564000     790.31900000       0.60000000       0.01000000  0.035  2       1.00000000  0  allstreams
  53  1 21497      10.08000000      10.00000000       0.01774000     790.14200000       0.60000000       0.01000000  0.035  2       1.00000000  0  allstreams
  54  1 22370       4.98000000      10.00000000       0.01033000     790.01800000       0.60000000       0.01000000  0.035  2       1.00000000  0  allstreams
  55  1 23127      10.44000000      10.00000000       0.01245000     789.91700000       0.60000000       0.01000000  0.035  2       1.00000000  0  allstreams
  56  1 22373       5.14000000      10.00000000       0.00599000     789.84300000       0.60000000       0.01000000  0.035  2       1.00000000  0  allstreams
  57  1 22372      12.18000000      10.00000000       0.01122000     789.91600000       0.60000000       0.01000000  0.035  2       1.00000000  0  allstreams
  58  2 20280      13.43000000      10.00000000       0.00781000     790.05300000       0.60000000       0.01000000  0.035  2       1.00000000  0  allstreams
  59  2 20279      12.99000000      10.00000000       0.02793000     789.92600000       0.60000000       0.01000000  0.035  2       1.00000000  0  allstreams
  60  2 20278      13.08000000      10.00000000       0.04709000     789.43300000       0.60000000       0.01000000  0.035  2       1.00000000  0  allstreams
  61  2 22416      13.69000000      10.00000000       0.00671000     789.04800000       0.60000000       0.01000000  0.035  2       1.00000000  0  allstreams
  62  1 21573      13.84000000      10.00000000       0.01506000     789.02400000       0.60000000       0.01000000  0.035  2       1.00000000  0  allstreams
  63  1 20396      13.78000000      10.00000000       0.02733000     788.70000000       0.60000000       0.01000000  0.035  2       1.00000000  0  allstreams
  64  1 20395      13.29000000      10.00000000       0.02959000     788.34400000       0.60000000       0.01000000  0.035  2       1.00000000  0  allstreams
  65  1 20271      11.73000000      10.00000000       0.01552000     787.99500000       0.60000000       0.01000000  0.035  2       1.00000000  0  allstreams
  66  1 20269       7.92000000      10.00000000       0.01291000     787.97300000       0.60000000       0.01000000  0.035  2       1.00000000  0  allstreams
  67  1 20268      11.51000000      10.00000000       0.01641000     787.94200000       0.60000000       0.01000000  0.035  2       1.00000000  0  allstreams
  68  1 18685      13.41000000      10.00000000       0.02612000     788.00800000       0.60000000       0.01000000  0.035  2       1.00000000  0  allstreams
  69  1 16479      13.47000000      10.00000000       0.03707000     788.38500000       0.60000000       0.01000000  0.035  2       1.00000000  0  allstreams
  70  1 16476      13.40000000      10.00000000       0.02848000     788.98400000       0.60000000       0.01000000  0.035  2       1.00000000  0  allstreams
  71  1 16480      12.92000000      10.00000000       0.05842000     788.41600000       0.60000000       0.01000000  0.035  2       1.00000000  0  allstreams
  72  1 18579       0.38000000      10.00000000       0.03145000     788.15500000       0.60000000       0.01000000  0.035  2       1.00000000  0  allstreams
  73  1 18577      12.10000000      10.00000000       0.04629000     787.86000000       0.60000000       0.01000000  0.035  2       1.00000000  0  allstreams
  74  1 16486      13.09000000      10.00000000       0.01405000     787.71700000       0.60000000       0.01000000  0.035  2       1.00000000  0  allstreams
  75  1 16487      13.89000000      10.00000000       0.02211000     787.48100000       0.60000000       0.01000000  0.035  2       1.00000000  0  allstreams
  76  1 16483      11.81000000      10.00000000       0.05343000     786.98700000       0.60000000       0.01000000  0.035  2       1.00000000  0  allstreams
  77  2 16485      14.66000000      10.00000000       0.01043000     786.70500000       0.60000000       0.01000000  0.035  2       1.00000000  0  allstreams
  78  2 18670      14.22000000      10.00000000       0.04476000     786.29900000       0.60000000       0.01000000  0.035  2       1.00000000  0  allstreams
  79  1 18671      10.40000000      10.00000000       0.03737000     785.77000000       0.60000000       0.01000000  0.035  2       1.00000000  0  allstreams
  80  1 18673      10.01000000      10.00000000       0.01857000     785.68000000       0.60000000       0.01000000  0.035  2       1.00000000  0  allstreams
  81  1 18672      11.59000000      10.00000000       0.01021000     785.84000000       0.60000000       0.01000000  0.035  2       1.00000000  0  allstreams
  82  1 18677      12.12000000      10.00000000       0.01452000     785.65800000       0.60000000       0.01000000  0.035  2       1.00000000  0  allstreams
  83  1 18675       9.26000000      10.00000000       0.01787000     785.71700000       0.60000000       0.01000000  0.035  2       1.00000000  0  allstreams
  84  1 18674      10.21000000      10.00000000       0.02582000     785.41700000       0.60000000       0.01000000  0.035  2       1.00000000  0  allstreams
  85  1 18666       8.54000000      10.00000000       0.01833000     785.45000000       0.60000000       0.01000000  0.035  2       1.00000000  0  allstreams
  86  2 18667      12.07000000      10.00000000       0.02625000     785.37300000       0.60000000       0.01000000  0.035  2       1.00000000  0  allstreams
  87  1 21543      14.04000000      10.00000000       0.01203000     785.11600000       0.60000000       0.01000000  0.035  2       1.00000000  0  allstreams
  88  1 18661       3.62000000      10.00000000       0.04195000     784.94000000       0.60000000       0.01000000  0.035  2       1.00000000  0  allstreams
  89  1 18658       7.56000000      10.00000000       0.03974000     784.71000000       0.60000000       0.01000000  0.035  2       1.00000000  0  allstreams
  90  1 18657      13.06000000      10.00000000       0.02856000     784.29800000       0.60000000       0.01000000  0.035  2       1.00000000  0  allstreams
  91  1 16417      13.44000000      10.00000000       0.00805000     784.25600000       0.60000000       0.01000000  0.035  2       1.00000000  0  allstreams
  92  1 13716      11.88000000      10.00000000       0.01540000     784.12800000       0.60000000       0.01000000  0.035  2       1.00000000  0  allstreams
  93  1 13717      11.44000000      10.00000000       0.00747000     784.01900000       0.60000000       0.01000000  0.035  2       1.00000000  0  allstreams
  94  1 13714       7.89000000      10.00000000       0.02211000     783.90100000       0.60000000       0.01000000  0.035  2       1.00000000  0  allstreams
  95  1 13715      11.71000000      10.00000000       0.01579000     783.68900000       0.60000000       0.01000000  0.035  2       1.00000000  0  allstreams
  96  1 13706      14.41000000      10.00000000       0.00369000     783.58500000       0.60000000       0.01000000  0.035  2       1.00000000  0  allstreams
  97  1 13705      14.40000000      10.00000000       0.01476000     783.45400000       0.60000000       0.01000000  0.035  2       1.00000000  0  allstreams
  98  2 13708      12.46000000      10.00000000       0.00506000     783.38900000       0.60000000       0.01000000  0.035  2       1.00000000  0  allstreams
  99  2 13709      11.31000000      10.00000000       0.00423000     783.31500000       0.60000000       0.01000000  0.035  2       1.00000000  0  allstreams
  100  2 16426      13.90000000      10.00000000       0.00372000     783.35200000       0.60000000       0.01000000  0.035  2       1.00000000  0  allstreams
  101  1 16425       6.08000000      10.00000000       0.03393000     783.23200000       0.60000000       0.01000000  0.035  2       1.00000000  0  allstreams
  102  1 16424       9.22000000      10.00000000       0.03643000     782.95600000       0.60000000       0.01000000  0.035  2       1.00000000  0  allstreams
  103  1 10836      10.76000000      10.00000000       0.01424000     782.69700000       0.60000000       0.01000000  0.035  2       1.00000000  0  allstreams
  104  1 10835      13.55000000      10.00000000       0.01308000     782.86900000       0.60000000       0.01000000  0.035  2       1.00000000  0  allstreams
  105  1 13671      14.33000000      10.00000000       0.02065000     782.66100000       0.60000000       0.01000000  0.035  2       1.00000000  0  allstreams
  106  1 10837      13.73000000      10.00000000       0.01500000     782.48900000       0.60000000       0.01000000  0.035  2       1.00000000  0  allstreams
  107  1 8329      10.04000000      10.00000000       0.02641000     782.24900000       0.60000000       0.01000000  0.035  2       1.00000000  0  allstreams
  108  1 8328      12.28000000      10.00000000       0.01743000     781.99800000       0.60000000       0.01000000  0.035  2       1.00000000  0  allstreams
  109  1 8327      11.24000000      10.00000000  2.90000000E-04     781.89900000       0.60000000       0.01000000  0.035  2       1.00000000  0  allstreams
  110  1 8336      11.06000000      10.00000000       0.01129000     781.83500000       0.60000000       0.01000000  0.035  2       1.00000000  0  allstreams
  111  1 16410       6.92000000      10.00000000       0.02270000     781.68800000       0.60000000       0.01000000  0.035  2       1.00000000  0  allstreams
  112  1 13685      11.62000000      10.00000000       0.02395000     781.46000000       0.60000000       0.01000000  0.035  2       1.00000000  0  allstreams
  113  1 13684      13.52000000      10.00000000       0.00941000     781.25500000       0.60000000       0.01000000  0.035  2       1.00000000  0  allstreams
  114  1 16413      13.41000000      10.00000000       0.01399000     781.11800000       0.60000000       0.01000000  0.035  2       1.00000000  0  allstreams
  115  1 13665      14.19000000      10.00000000       0.01566000     780.89600000       0.60000000       0.01000000  0.035  2       1.00000000  0  allstreams
  116  1 13661      13.99000000      10.00000000       0.00313000     780.79700000       0.60000000       0.01000000  0.035  2       1.00000000  0  allstreams
  117  1 13660      12.75000000      10.00000000       0.00705000     780.73800000       0.60000000       0.01000000  0.035  2       1.00000000  0  allstreams
  118  1 18654      12.25000000      10.00000000       0.01350000     780.63200000       0.60000000       0.01000000  0.035  2       1.00000000  0  allstreams
  119  1 20358      10.70000000      10.00000000       0.02002000     780.44500000       0.60000000       0.01000000  0.035  2       1.00000000  0  allstreams
  120  1 20357      10.86000000      10.00000000       0.02233000     780.19900000       0.60000000       0.01000000  0.035  2       1.00000000  0  allstreams
  121  1 21540       6.58000000      10.00000000       0.00831000     780.05200000       0.60000000       0.01000000  0.035  2       1.00000000  0  allstreams
  122  1 20359      11.61000000      10.00000000       0.00974000     779.98800000       0.60000000       0.01000000  0.035  2       1.00000000  0  allstreams
  123  1 16470      11.84000000      10.00000000       0.01667000     779.81000000       0.60000000       0.01000000  0.035  2       1.00000000  0  allstreams
  124  1 16467       9.07000000      10.00000000       0.00193000     779.70400000       0.60000000       0.01000000  0.035  2       1.00000000  0  allstreams
  125  1 16466      10.73000000      10.00000000       0.01380000     779.64000000       0.60000000       0.01000000  0.035  2       1.00000000  0  allstreams
  126  1 16464       7.91000000      10.00000000       0.02016000     779.46900000       0.60000000       0.01000000  0.035  2       1.00000000  0  allstreams
  127  1 16465      10.67000000      10.00000000       0.01435000     779.32000000       0.60000000       0.01000000  0.035  2       1.00000000  0  allstreams
  128  1 13741       9.39000000      10.00000000       0.01484000     779.16800000       0.60000000       0.01000000  0.035  2       1.00000000  0  allstreams
  129  1 10862      11.57000000      10.00000000       0.00461000     779.08700000       0.60000000       0.01000000  0.035  2       1.00000000  0  allstreams
  130  1 8376      12.21000000      10.00000000       0.01367000     778.96700000       0.60000000       0.01000000  0.035  2       1.00000000  0  allstreams
  131  1 8375      12.77000000      10.00000000       0.00845000     778.82800000       0.60000000       0.01000000  0.035  2       1.00000000  0  allstreams
  132  1 16460      13.12000000      10.00000000       0.00160000     778.76200000       0.60000000       0.01000000  0.035  2       1.00000000  0  allstreams
  133  1 18682      13.30000000      10.00000000       0.01175000     778.81100000       0.60000000       0.01000000  0.035  2       1.00000000  0  allstreams
  134  1 16456      13.51000000      10.00000000       0.00729000     778.87600000       0.60000000       0.01000000  0.035  2       1.00000000  0  allstreams
  135  1 10858      13.31000000      10.00000000       0.01160000     778.75800000       0.60000000       0.01000000  0.035  2       1.00000000  0  allstreams
  136  1 10857      11.87000000      10.00000000       0.04878000     778.39900000       0.60000000       0.01000000  0.035  2       1.00000000  0  allstreams
  137  2 13731       9.51000000      10.00000000       0.01635000     777.97000000       0.60000000       0.01000000  0.035  2       1.00000000  0  allstreams
  138  2 10859      12.11000000      10.00000000       0.02110000     777.81300000       0.60000000       0.01000000  0.035  2       1.00000000  0  allstreams
  139  2 10860      12.06000000      10.00000000       0.00712000     777.66300000       0.60000000       0.01000000  0.035  2       1.00000000  0  allstreams
  140  2 10871      10.79000000      10.00000000       0.00174000     777.68900000       0.60000000       0.01000000  0.035  2       1.00000000  0  allstreams
  141  1 10874      12.56000000      10.00000000       0.01191000     777.57900000       0.60000000       0.01000000  0.035  2       1.00000000  0  allstreams
  142  2 16457      11.90000000      10.00000000       0.00957000     777.47200000       0.60000000       0.01000000  0.035  2       1.00000000  0  allstreams
  143  2 13736       8.50000000      10.00000000       0.01183000     777.38800000       0.60000000       0.01000000  0.035  2       1.00000000  0  allstreams
  144  2 10865      11.93000000      10.00000000       0.01821000     777.23800000       0.60000000       0.01000000  0.035  2       1.00000000  0  allstreams
  145  2 10866      13.97000000      10.00000000       0.00833000     777.03900000       0.60000000       0.01000000  0.035  2       1.00000000  0  allstreams
  146  2 10868      12.91000000      10.00000000       0.00860000     776.92800000       0.60000000       0.01000000  0.035  2       1.00000000  0  allstreams
  147  2 11199      11.20000000      10.00000000       0.02412000     776.75200000       0.60000000       0.01000000  0.035  2       1.00000000  0  allstreams
  148  2 11213      12.65000000      10.00000000       0.03678000     776.39800000       0.60000000       0.01000000  0.035  2       1.00000000  0  allstreams
  149  2 8511       7.43000000      10.00000000       0.04131000     775.98300000       0.60000000       0.01000000  0.035  2       1.00000000  0  allstreams
  150  2 8508       7.50000000      10.00000000       0.01487000     775.75600000       0.60000000       0.01000000  0.035  2       1.00000000  0  allstreams
  151  2 8512      10.40000000      10.00000000       0.00616000     775.68100000       0.60000000       0.01000000  0.035  2       1.00000000  0  allstreams
  152  2 11214      14.57000000      10.00000000       0.01123000     775.79700000       0.60000000       0.01000000  0.035  2       1.00000000  0  allstreams
  153  2 20350       1.59000000       5.00000000       0.00540000     792.73800000       0.60000000       0.01000000  0.035  1       1.00000000  0  allstreams
  154  1 21537      11.24000000       5.00000000       0.00950000     792.66800000       0.60000000       0.01000000  0.035  2       1.00000000  0  allstreams
  155  1 18629      10.11000000       5.00000000       0.01630000     792.55100000       0.60000000       0.01000000  0.035  2       1.00000000  0  allstreams
  156  1 18626      11.94000000       5.00000000       0.01160000     792.37200000       0.60000000       0.01000000  0.035  2       1.00000000  0  allstreams
  157  1 18625      14.06000000       5.00000000       0.00170000     792.30300000       0.60000000       0.01000000  0.035  2       1.00000000  0  allstreams
  158  1 21539      13.97000000       5.00000000       0.02430000     792.13600000       0.60000000       0.01000000  0.035  2       1.00000000  0  allstreams
  159  1 20351      11.95000000       5.00000000       0.00490000     791.92000000       0.60000000       0.01000000  0.035  2       1.00000000  0  allstreams
  160  1 20348       5.91000000       5.00000000       0.01140000     791.93200000       0.60000000       0.01000000  0.035  2       1.00000000  0  allstreams
  161  1 20346      11.72000000       5.00000000       0.04500000     791.63200000       0.60000000       0.01000000  0.035  2       1.00000000  0  allstreams
  162  1 20347      12.17000000       5.00000000       0.00480000     791.31800000       0.60000000       0.01000000  0.035  2       1.00000000  0  allstreams
  163  1 18615      10.57000000       5.00000000       0.01280000     791.34400000       0.60000000       0.01000000  0.035  2       1.00000000  0  allstreams
  164  1 10749      13.08000000       5.00000000       0.03660000     791.03700000       0.60000000       0.01000000  0.035  2       1.00000000  0  allstreams
  165  2 10752      13.99000000       5.00000000       0.02970000     790.54600000       0.60000000       0.01000000  0.035  2       1.00000000  0  allstreams
  166  1 13543      13.20000000       5.00000000       0.00850000     790.30100000       0.60000000       0.01000000  0.035  2       1.00000000  0  allstreams
  167  1 16333      13.33000000       5.00000000       0.00980000     790.32600000       0.60000000       0.01000000  0.035  2       1.00000000  0  allstreams
  168  2 13590      13.45000000       5.00000000       0.03590000     790.04900000       0.60000000       0.01000000  0.035  2       1.00000000  0  allstreams
  169  2 13589      13.49000000       5.00000000       0.00620000     789.73500000       0.60000000       0.01000000  0.035  2       1.00000000  0  allstreams
  170  2 13588      13.44000000       5.00000000       0.00860000     789.68900000       0.60000000       0.01000000  0.035  2       1.00000000  0  allstreams
  171  1 13592      13.42000000       5.00000000       0.00200000     789.60800000       0.60000000       0.01000000  0.035  2       1.00000000  0  allstreams
  172  1 13594      13.33000000       5.00000000       0.00830000     789.57300000       0.60000000       0.01000000  0.035  2       1.00000000  0  allstreams
  173  2 16369      13.23000000       5.00000000       0.02800000     789.32000000       0.60000000       0.01000000  0.035  2       1.00000000  0  allstreams
  174  2 13601      13.00000000       5.00000000       0.01080000     789.03900000       0.60000000       0.01000000  0.035  2       1.00000000  0  allstreams
  175  1 13602      13.09000000       5.00000000       0.00410000     788.97500000       0.60000000       0.01000000  0.035  2       1.00000000  0  allstreams
  176  1 13606      12.99000000       5.00000000       0.00980000     788.89500000       0.60000000       0.01000000  0.035  2       1.00000000  0  allstreams
  177  1 13600      13.29000000       5.00000000       0.02120000     788.69700000       0.60000000       0.01000000  0.035  2       1.00000000  0  allstreams
  178  2 13597      13.49000000       5.00000000       0.01200000     788.46600000       0.60000000       0.01000000  0.035  2       1.00000000  0  allstreams
  179  2 18642      13.17000000       5.00000000       0.01370000     788.29700000       0.60000000       0.01000000  0.035  2       1.00000000  0  allstreams
  180  2 16379      12.69000000       5.00000000       0.02020000     788.08800000       0.60000000       0.01000000  0.035  2       1.00000000  0  allstreams
  181  1 16380      12.17000000       5.00000000       0.00540000     787.90700000       0.60000000       0.01000000  0.035  2       1.00000000  0  allstreams
  182  1 20354      10.32000000       5.00000000       0.01150000     787.97100000       0.60000000       0.01000000  0.035  2       1.00000000  0  allstreams
  183  1 18645      10.44000000       5.00000000       0.01220000     788.03000000       0.60000000       0.01000000  0.035  2       1.00000000  0  allstreams
  184  1 16363      13.10000000       5.00000000       0.01000000     787.86100000       0.60000000       0.01000000  0.035  2       1.00000000  0  allstreams
  185  1 16362      11.63000000       5.00000000       0.00520000     787.78800000       0.60000000       0.01000000  0.035  2       1.00000000  0  allstreams
  186  1 13610      12.18000000       5.00000000       0.01130000     787.72000000       0.60000000       0.01000000  0.035  2       1.00000000  0  allstreams