BEGIN options
  SAVE_FLOWS
END options

BEGIN dimensions
  MAXBOUND  106
END dimensions

BEGIN period  1
  1 872     740.00000000     419.50000000
  2 872     733.00000000     419.50000000
  2 1603     733.00000000     205.05000000
  1 1622     740.00000000    1060.40000000
  2 1622     733.00000000    1060.40000000
  2 1624     733.00000000     415.85000000
  2 1625     733.00000000     678.10000000
  1 1627     740.00000000     345.20000000
  2 1627     733.00000000     345.20000000
  1 1628     740.00000000     116.45000000
  2 1628     733.00000000     116.45000000
  1 2541     740.00000000     276.75000000
  2 2541     733.00000000     276.75000000
  1 2557     740.00000000      40.25000000
  2 2557     733.00000000      40.25000000
  1 3726     740.00000000     187.50000000
  2 3726     733.00000000     187.50000000
  1 3761     740.00000000     187.50000000
  2 3761     733.00000000     187.50000000
  1 3762     740.00000000     136.15000000
  2 3762     733.00000000     136.15000000
  1 3763     740.00000000     107.45000000
  2 3763     733.00000000     107.45000000
  2 3778     733.00000000     124.05000000
  1 5518     740.00000000      98.25000000
  2 5518     733.00000000      98.25000000
  1 5519     740.00000000     177.35000000
  2 5519     733.00000000     177.35000000
  1 5520     740.00000000     160.30000000
  2 5520     733.00000000     160.30000000
  1 7743     740.00000000      64.40000000
  2 7743     733.00000000      64.40000000
  1 7751     740.00000000     198.45000000
  2 7751     733.00000000     198.45000000
  1 10021     740.00000000     192.20000000
  2 10021     733.00000000     192.20000000
  1 12942     740.00000000      91.10000000
  2 12942     733.00000000      91.10000000
  2 12973     733.00000000      24.72500000
  1 12974     740.00000000      55.20000000
  2 12974     733.00000000      55.20000000
  2 12975     733.00000000      21.11000061
  1 15793     740.00000000      13.34499970
  2 15793     733.00000000      13.34499970
  1 15794     740.00000000      13.07500000
  2 15794     733.00000000      13.07500000
  1 15795     740.00000000       4.81199990
  2 15795     733.00000000       4.81199990
  1 15796     740.00000000       6.31500015
  2 15796     733.00000000       6.31500015
  1 15821     740.00000000      35.35499878
  2 15821     733.00000000      35.35499878
  1 15822     740.00000000      10.31500015
  2 15822     733.00000000      10.31500015
  1 15823     740.00000000      13.30000000
  2 15823     733.00000000      13.30000000
  1 15824     740.00000000      76.35000000
  2 15824     733.00000000      76.35000000
  1 15825     740.00000000      28.18500061
  2 15825     733.00000000      28.18500061
  1 15826     740.00000000      31.78999939
  2 15826     733.00000000      31.78999939
  1 15827     740.00000000      12.43499985
  2 15827     733.00000000      12.43499985
  1 15829     740.00000000      10.22500000
  2 15829     733.00000000      10.22500000
  1 15830     740.00000000      10.29000015
  2 15830     733.00000000      10.29000015
  1 18301     740.00000000      33.08500061
  2 18301     733.00000000      33.08500061
  1 18302     740.00000000       1.05100003
  2 18302     733.00000000       1.05100003
  1 18303     740.00000000      27.17500000
  2 18303     733.00000000      27.17500000
  1 18304     740.00000000     174.65000000
  2 18304     733.00000000     174.65000000
  1 18306     740.00000000      11.08000030
  2 18306     733.00000000      11.08000030
  1 18307     740.00000000       7.05500030
  2 18307     733.00000000       7.05500030
  1 18308     740.00000000       7.75000000
  2 18308     733.00000000       7.75000000
  1 18309     740.00000000      12.69499969
  2 18309     733.00000000      12.69499969
  1 18310     740.00000000       6.73000030
  2 18310     733.00000000       6.73000030
  1 18311     740.00000000       6.73000030
  2 18311     733.00000000       6.73000030
  1 18340     740.00000000       4.73300018
  2 18340     733.00000000       4.73300018
  1 20092     740.00000000      14.70000000
  2 20092     733.00000000      14.70000000
  1 20093     740.00000000       9.15000000
  2 20093     733.00000000       9.15000000
  1 20094     740.00000000       5.59500008
  2 20094     733.00000000       5.59500008
  1 21415     740.00000000       4.95499992
  2 21415     733.00000000       4.95499992
  1 21416     740.00000000       8.73499984
  2 21416     733.00000000       8.73499984
  1 21417     740.00000000       7.05500030
  2 21417     733.00000000       7.05500030
  1 21418     740.00000000       1.44399996
  2 21418     733.00000000       1.44399996
  1 22297     740.00000000       8.86500015
  2 22297     733.00000000       8.86500015
END period  1

