BEGIN options
  SAVE_FLOWS
END options

BEGIN griddata
  iconvert
    CONSTANT  1
  ss  LAYERED
    CONSTANT  1.00000000E-05
    CONSTANT  1.00000000E-05
  sy  LAYERED
    CONSTANT       0.05000000
    CONSTANT       0.05000000
END griddata

BEGIN period  1
  STEADY-STATE
END period  1

