BEGIN TIMING
  TDIS6 'STAS_STEADYSTATE.tdis'
END TIMING

BEGIN MODELS
  GWF6 'STAS_STEADYSTATE.nam' 'MODFLOW'
END MODELS

BEGIN EXCHANGES
END EXCHANGES

BEGIN SOLUTIONGROUP     1
  MXITER     1
  IMS6 'STAS_STEADYSTATE.ims' 'MODFLOW' 
END SOLUTIONGROUP

