# RCH: Recharge package file created on 28-08-2024 by ModelMuse version 5.1.1.0.
BEGIN OPTIONS
  AUXILIARY IFACE
  PRINT_INPUT
    SAVE_FLOWS
    BOUNDNAMES
  FIXED_CELL
END OPTIONS

BEGIN DIMENSIONS
  MAXBOUND  6691
END DIMENSIONS

BEGIN PERIOD      1
     1    99    83  2.700000000000E-007      0 'net_recharge' 
     1    99    82  2.700000000000E-007      0 'net_recharge' 
     1    99    81  2.700000000000E-007      0 'net_recharge' 
     1    99    80  2.700000000000E-007      0 'net_recharge' 
     1    99    79  2.700000000000E-007      0 'net_recharge' 
     1    99    78  2.700000000000E-007      0 'net_recharge' 
     1    99    77  2.700000000000E-007      0 'net_recharge' 
     1    99    76  2.700000000000E-007      0 'net_recharge' 
     1    99    75  2.700000000000E-007      0 'net_recharge' 
     1    99    74  2.700000000000E-007      0 'net_recharge' 
     1    99    73  2.700000000000E-007      0 'net_recharge' 
     1    99    72  2.700000000000E-007      0 'net_recharge' 
     1    99    71  2.700000000000E-007      0 'net_recharge' 
     1    99    70  2.700000000000E-007      0 'net_recharge' 
     1    99    69  2.700000000000E-007      0 'net_recharge' 
     1    98    87  2.700000000000E-007      0 'net_recharge' 
     1    98    86  2.700000000000E-007      0 'net_recharge' 
     1    98    85  2.700000000000E-007      0 'net_recharge' 
     1    98    84  2.700000000000E-007      0 'net_recharge' 
     1    98    83  2.700000000000E-007      0 'net_recharge' 
     1    98    82  2.700000000000E-007      0 'net_recharge' 
     1    98    81  2.700000000000E-007      0 'net_recharge' 
     1    98    80  2.700000000000E-007      0 'net_recharge' 
     1    98    79  2.700000000000E-007      0 'net_recharge' 
     1    98    78  2.700000000000E-007      0 'net_recharge' 
     1    98    77  2.700000000000E-007      0 'net_recharge' 
     1    98    76  2.700000000000E-007      0 'net_recharge' 
     1    98    75  2.700000000000E-007      0 'net_recharge' 
     1    98    74  2.700000000000E-007      0 'net_recharge' 
     1    98    73  2.700000000000E-007      0 'net_recharge' 
     1    98    72  2.700000000000E-007      0 'net_recharge' 
     1    98    71  2.700000000000E-007      0 'net_recharge' 
     1    98    70  2.700000000000E-007      0 'net_recharge' 
     1    98    69  2.700000000000E-007      0 'net_recharge' 
     1    98    68  2.700000000000E-007      0 'net_recharge' 
     1    98    67  2.700000000000E-007      0 'net_recharge' 
     1    98    66  2.700000000000E-007      0 'net_recharge' 
     1    98    65  2.700000000000E-007      0 'net_recharge' 
     1    98    64  2.700000000000E-007      0 'net_recharge' 
     1    98    63  2.700000000000E-007      0 'net_recharge' 
     1    97    89  2.700000000000E-007      0 'net_recharge' 
     1    97    88  2.700000000000E-007      0 'net_recharge' 
     1    97    87  2.700000000000E-007      0 'net_recharge' 
     1    97    86  2.700000000000E-007      0 'net_recharge' 
     1    97    85  2.700000000000E-007      0 'net_recharge' 
     1    97    84  2.700000000000E-007      0 'net_recharge' 
     1    97    83  2.700000000000E-007      0 'net_recharge' 
     1    97    82  2.700000000000E-007      0 'net_recharge' 
     1    97    81  2.700000000000E-007      0 'net_recharge' 
     1    97    80  2.700000000000E-007      0 'net_recharge' 
     1    97    79  2.700000000000E-007      0 'net_recharge' 
     1    97    78  2.700000000000E-007      0 'net_recharge' 
     1    97    77  2.700000000000E-007      0 'net_recharge' 
     1    97    76  2.700000000000E-007      0 'net_recharge' 
     1    97    75  2.700000000000E-007      0 'net_recharge' 
     1    97    74  2.700000000000E-007      0 'net_recharge' 
     1    97    73  2.700000000000E-007      0 'net_recharge' 
     1    97    72  2.700000000000E-007      0 'net_recharge' 
     1    97    71  2.700000000000E-007      0 'net_recharge' 
     1    97    70  2.700000000000E-007      0 'net_recharge' 
     1    97    69  2.700000000000E-007      0 'net_recharge' 
     1    97    68  2.700000000000E-007      0 'net_recharge' 
     1    97    67  2.700000000000E-007      0 'net_recharge' 
     1    97    66  2.700000000000E-007      0 'net_recharge' 
     1    97    65  2.700000000000E-007      0 'net_recharge' 
     1    97    64  2.700000000000E-007      0 'net_recharge' 
     1    97    63  2.700000000000E-007      0 'net_recharge' 
     1    97    62  2.700000000000E-007      0 'net_recharge' 
     1    97    61  2.700000000000E-007      0 'net_recharge' 
     1    97    60  2.700000000000E-007      0 'net_recharge' 
     1    97    59  2.700000000000E-007      0 'net_recharge' 
     1    96    91  2.700000000000E-007      0 'net_recharge' 
     1    96    90  2.700000000000E-007      0 'net_recharge' 
     1    96    89  2.700000000000E-007      0 'net_recharge' 
     1    96    88  2.700000000000E-007      0 'net_recharge' 
     1    96    87  2.700000000000E-007      0 'net_recharge' 
     1    96    86  2.700000000000E-007      0 'net_recharge' 
     1    96    85  2.700000000000E-007      0 'net_recharge' 
     1    96    84  2.700000000000E-007      0 'net_recharge' 
     1    96    83  2.700000000000E-007      0 'net_recharge' 
     1    96    82  2.700000000000E-007      0 'net_recharge' 
     1    96    81  2.700000000000E-007      0 'net_recharge' 
     1    96    80  2.700000000000E-007      0 'net_recharge' 
     1    96    79  2.700000000000E-007      0 'net_recharge' 
     1    96    78  2.700000000000E-007      0 'net_recharge' 
     1    96    77  2.700000000000E-007      0 'net_recharge' 
     1    96    76  2.700000000000E-007      0 'net_recharge' 
     1    96    75  2.700000000000E-007      0 'net_recharge' 
     1    96    74  2.700000000000E-007      0 'net_recharge' 
     1    96    73  2.700000000000E-007      0 'net_recharge' 
     1    96    72  2.700000000000E-007      0 'net_recharge' 
     1    96    71  2.700000000000E-007      0 'net_recharge' 
     1    96    70  2.700000000000E-007      0 'net_recharge' 
     1    96    69  2.700000000000E-007      0 'net_recharge' 
     1    96    68  2.700000000000E-007      0 'net_recharge' 
     1    96    67  2.700000000000E-007      0 'net_recharge' 
     1    96    66  2.700000000000E-007      0 'net_recharge' 
     1    96    65  2.700000000000E-007      0 'net_recharge' 
     1    96    64  2.700000000000E-007      0 'net_recharge' 
     1    96    63  2.700000000000E-007      0 'net_recharge' 
     1    96    62  2.700000000000E-007      0 'net_recharge' 
     1    96    61  2.700000000000E-007      0 'net_recharge' 
     1    96    60  2.700000000000E-007      0 'net_recharge' 
     1    96    59  2.700000000000E-007      0 'net_recharge' 
     1    96    58  2.700000000000E-007      0 'net_recharge' 
     1    96    57  2.700000000000E-007      0 'net_recharge' 
     1    95    93  2.700000000000E-007      0 'net_recharge' 
     1    95    92  2.700000000000E-007      0 'net_recharge' 
     1    95    91  2.700000000000E-007      0 'net_recharge' 
     1    95    90  2.700000000000E-007      0 'net_recharge' 
     1    95    89  2.700000000000E-007      0 'net_recharge' 
     1    95    88  2.700000000000E-007      0 'net_recharge' 
     1    95    87  2.700000000000E-007      0 'net_recharge' 
     1    95    86  2.700000000000E-007      0 'net_recharge' 
     1    95    85  2.700000000000E-007      0 'net_recharge' 
     1    95    84  2.700000000000E-007      0 'net_recharge' 
     1    95    83  2.700000000000E-007      0 'net_recharge' 
     1    95    82  2.700000000000E-007      0 'net_recharge' 
     1    95    81  2.700000000000E-007      0 'net_recharge' 
     1    95    80  2.700000000000E-007      0 'net_recharge' 
     1    95    79  2.700000000000E-007      0 'net_recharge' 
     1    95    78  2.700000000000E-007      0 'net_recharge' 
     1    95    77  2.700000000000E-007      0 'net_recharge' 
     1    95    76  2.700000000000E-007      0 'net_recharge' 
     1    95    75  2.700000000000E-007      0 'net_recharge' 
     1    95    74  2.700000000000E-007      0 'net_recharge' 
     1    95    73  2.700000000000E-007      0 'net_recharge' 
     1    95    72  2.700000000000E-007      0 'net_recharge' 
     1    95    71  2.700000000000E-007      0 'net_recharge' 
     1    95    70  2.700000000000E-007      0 'net_recharge' 
     1    95    69  2.700000000000E-007      0 'net_recharge' 
     1    95    68  2.700000000000E-007      0 'net_recharge' 
     1    95    67  2.700000000000E-007      0 'net_recharge' 
     1    95    66  2.700000000000E-007      0 'net_recharge' 
     1    95    65  2.700000000000E-007      0 'net_recharge' 
     1    95    64  2.700000000000E-007      0 'net_recharge' 
     1    95    63  2.700000000000E-007      0 'net_recharge' 
     1    95    62  2.700000000000E-007      0 'net_recharge' 
     1    95    61  2.700000000000E-007      0 'net_recharge' 
     1    95    60  2.700000000000E-007      0 'net_recharge' 
     1    95    59  2.700000000000E-007      0 'net_recharge' 
     1    95    58  2.700000000000E-007      0 'net_recharge' 
     1    95    57  2.700000000000E-007      0 'net_recharge' 
     1    95    56  2.700000000000E-007      0 'net_recharge' 
     1    94    94  2.700000000000E-007      0 'net_recharge' 
     1    94    93  2.700000000000E-007      0 'net_recharge' 
     1    94    92  2.700000000000E-007      0 'net_recharge' 
     1    94    91  2.700000000000E-007      0 'net_recharge' 
     1    94    90  2.700000000000E-007      0 'net_recharge' 
     1    94    89  2.700000000000E-007      0 'net_recharge' 
     1    94    88  2.700000000000E-007      0 'net_recharge' 
     1    94    87  2.700000000000E-007      0 'net_recharge' 
     1    94    86  2.700000000000E-007      0 'net_recharge' 
     1    94    85  2.700000000000E-007      0 'net_recharge' 
     1    94    84  2.700000000000E-007      0 'net_recharge' 
     1    94    83  2.700000000000E-007      0 'net_recharge' 
     1    94    82  2.700000000000E-007      0 'net_recharge' 
     1    94    81  2.700000000000E-007      0 'net_recharge' 
     1    94    80  2.700000000000E-007      0 'net_recharge' 
     1    94    79  2.700000000000E-007      0 'net_recharge' 
     1    94    78  2.700000000000E-007      0 'net_recharge' 
     1    94    77  2.700000000000E-007      0 'net_recharge' 
     1    94    76  2.700000000000E-007      0 'net_recharge' 
     1    94    75  2.700000000000E-007      0 'net_recharge' 
     1    94    74  2.700000000000E-007      0 'net_recharge' 
     1    94    73  2.700000000000E-007      0 'net_recharge' 
     1    94    72  2.700000000000E-007      0 'net_recharge' 
     1    94    71  2.700000000000E-007      0 'net_recharge' 
     1    94    70  2.700000000000E-007      0 'net_recharge' 
     1    94    69  2.700000000000E-007      0 'net_recharge' 
     1    94    68  2.700000000000E-007      0 'net_recharge' 
     1    94    67  2.700000000000E-007      0 'net_recharge' 
     1    94    66  2.700000000000E-007      0 'net_recharge' 
     1    94    65  2.700000000000E-007      0 'net_recharge' 
     1    94    64  2.700000000000E-007      0 'net_recharge' 
     1    94    63  2.700000000000E-007      0 'net_recharge' 
     1    94    62  2.700000000000E-007      0 'net_recharge' 
     1    94    61  2.700000000000E-007      0 'net_recharge' 
     1    94    60  2.700000000000E-007      0 'net_recharge' 
     1    94    59  2.700000000000E-007      0 'net_recharge' 
     1    94    58  2.700000000000E-007      0 'net_recharge' 
     1    94    57  2.700000000000E-007      0 'net_recharge' 
     1    94    56  2.700000000000E-007      0 'net_recharge' 
     1    94    55  2.700000000000E-007      0 'net_recharge' 
     1    93    96  2.700000000000E-007      0 'net_recharge' 
     1    93    95  2.700000000000E-007      0 'net_recharge' 
     1    93    94  2.700000000000E-007      0 'net_recharge' 
     1    93    93  2.700000000000E-007      0 'net_recharge' 
     1    93    92  2.700000000000E-007      0 'net_recharge' 
     1    93    91  2.700000000000E-007      0 'net_recharge' 
     1    93    90  2.700000000000E-007      0 'net_recharge' 
     1    93    89  2.700000000000E-007      0 'net_recharge' 
     1    93    88  2.700000000000E-007      0 'net_recharge' 
     1    93    87  2.700000000000E-007      0 'net_recharge' 
     1    93    86  2.700000000000E-007      0 'net_recharge' 
     1    93    85  2.700000000000E-007      0 'net_recharge' 
     1    93    84  2.700000000000E-007      0 'net_recharge' 
     1    93    83  2.700000000000E-007      0 'net_recharge' 
     1    93    82  2.700000000000E-007      0 'net_recharge' 
     1    93    81  2.700000000000E-007      0 'net_recharge' 
     1    93    80  2.700000000000E-007      0 'net_recharge' 
     1    93    79  2.700000000000E-007      0 'net_recharge' 
     1    93    78  2.700000000000E-007      0 'net_recharge' 
     1    93    77  2.700000000000E-007      0 'net_recharge' 
     1    93    76  2.700000000000E-007      0 'net_recharge' 
     1    93    75  2.700000000000E-007      0 'net_recharge' 
     1    93    74  2.700000000000E-007      0 'net_recharge' 
     1    93    73  2.700000000000E-007      0 'net_recharge' 
     1    93    72  2.700000000000E-007      0 'net_recharge' 
     1    93    71  2.700000000000E-007      0 'net_recharge' 
     1    93    70  2.700000000000E-007      0 'net_recharge' 
     1    93    69  2.700000000000E-007      0 'net_recharge' 
     1    93    68  2.700000000000E-007      0 'net_recharge' 
     1    93    67  2.700000000000E-007      0 'net_recharge' 
     1    93    66  2.700000000000E-007      0 'net_recharge' 
     1    93    65  2.700000000000E-007      0 'net_recharge' 
     1    93    64  2.700000000000E-007      0 'net_recharge' 
     1    93    63  2.700000000000E-007      0 'net_recharge' 
     1    93    62  2.700000000000E-007      0 'net_recharge' 
     1    93    61  2.700000000000E-007      0 'net_recharge' 
     1    93    60  2.700000000000E-007      0 'net_recharge' 
     1    93    59  2.700000000000E-007      0 'net_recharge' 
     1    93    58  2.700000000000E-007      0 'net_recharge' 
     1    93    57  2.700000000000E-007      0 'net_recharge' 
     1    93    56  2.700000000000E-007      0 'net_recharge' 
     1    93    55  2.700000000000E-007      0 'net_recharge' 
     1    92    97  2.700000000000E-007      0 'net_recharge' 
     1    92    96  2.700000000000E-007      0 'net_recharge' 
     1    92    95  2.700000000000E-007      0 'net_recharge' 
     1    92    94  2.700000000000E-007      0 'net_recharge' 
     1    92    93  2.700000000000E-007      0 'net_recharge' 
     1    92    92  2.700000000000E-007      0 'net_recharge' 
     1    92    91  2.700000000000E-007      0 'net_recharge' 
     1    92    90  2.700000000000E-007      0 'net_recharge' 
     1    92    89  2.700000000000E-007      0 'net_recharge' 
     1    92    88  2.700000000000E-007      0 'net_recharge' 
     1    92    87  2.700000000000E-007      0 'net_recharge' 
     1    92    86  2.700000000000E-007      0 'net_recharge' 
     1    92    85  2.700000000000E-007      0 'net_recharge' 
     1    92    84  2.700000000000E-007      0 'net_recharge' 
     1    92    83  2.700000000000E-007      0 'net_recharge' 
     1    92    82  2.700000000000E-007      0 'net_recharge' 
     1    92    81  2.700000000000E-007      0 'net_recharge' 
     1    92    80  2.700000000000E-007      0 'net_recharge' 
     1    92    79  2.700000000000E-007      0 'net_recharge' 
     1    92    78  2.700000000000E-007      0 'net_recharge' 
     1    92    77  2.700000000000E-007      0 'net_recharge' 
     1    92    76  2.700000000000E-007      0 'net_recharge' 
     1    92    75  2.700000000000E-007      0 'net_recharge' 
     1    92    74  2.700000000000E-007      0 'net_recharge' 
     1    92    73  2.700000000000E-007      0 'net_recharge' 
     1    92    72  2.700000000000E-007      0 'net_recharge' 
     1    92    71  2.700000000000E-007      0 'net_recharge' 
     1    92    70  2.700000000000E-007      0 'net_recharge' 
     1    92    69  2.700000000000E-007      0 'net_recharge' 
     1    92    68  2.700000000000E-007      0 'net_recharge' 
     1    92    67  2.700000000000E-007      0 'net_recharge' 
     1    92    66  2.700000000000E-007      0 'net_recharge' 
     1    92    65  2.700000000000E-007      0 'net_recharge' 
     1    92    64  2.700000000000E-007      0 'net_recharge' 
     1    92    63  2.700000000000E-007      0 'net_recharge' 
     1    92    62  2.700000000000E-007      0 'net_recharge' 
     1    92    61  2.700000000000E-007      0 'net_recharge' 
     1    92    60  2.700000000000E-007      0 'net_recharge' 
     1    92    59  2.700000000000E-007      0 'net_recharge' 
     1    92    58  2.700000000000E-007      0 'net_recharge' 
     1    92    57  2.700000000000E-007      0 'net_recharge' 
     1    92    56  2.700000000000E-007      0 'net_recharge' 
     1    92    55  2.700000000000E-007      0 'net_recharge' 
     1    91    98  2.700000000000E-007      0 'net_recharge' 
     1    91    97  2.700000000000E-007      0 'net_recharge' 
     1    91    96  2.700000000000E-007      0 'net_recharge' 
     1    91    95  2.700000000000E-007      0 'net_recharge' 
     1    91    94  2.700000000000E-007      0 'net_recharge' 
     1    91    93  2.700000000000E-007      0 'net_recharge' 
     1    91    92  2.700000000000E-007      0 'net_recharge' 
     1    91    91  2.700000000000E-007      0 'net_recharge' 
     1    91    90  2.700000000000E-007      0 'net_recharge' 
     1    91    89  2.700000000000E-007      0 'net_recharge' 
     1    91    88  2.700000000000E-007      0 'net_recharge' 
     1    91    87  2.700000000000E-007      0 'net_recharge' 
     1    91    86  2.700000000000E-007      0 'net_recharge' 
     1    91    85  2.700000000000E-007      0 'net_recharge' 
     1    91    84  2.700000000000E-007      0 'net_recharge' 
     1    91    83  2.700000000000E-007      0 'net_recharge' 
     1    91    82  2.700000000000E-007      0 'net_recharge' 
     1    91    81  2.700000000000E-007      0 'net_recharge' 
     1    91    80  2.700000000000E-007      0 'net_recharge' 
     1    91    79  2.700000000000E-007      0 'net_recharge' 
     1    91    78  2.700000000000E-007      0 'net_recharge' 
     1    91    77  2.700000000000E-007      0 'net_recharge' 
     1    91    76  2.700000000000E-007      0 'net_recharge' 
     1    91    75  2.700000000000E-007      0 'net_recharge' 
     1    91    74  2.700000000000E-007      0 'net_recharge' 
     1    91    73  2.700000000000E-007      0 'net_recharge' 
     1    91    72  2.700000000000E-007      0 'net_recharge' 
     1    91    71  2.700000000000E-007      0 'net_recharge' 
     1    91    70  2.700000000000E-007      0 'net_recharge' 
     1    91    69  2.700000000000E-007      0 'net_recharge' 
     1    91    68  2.700000000000E-007      0 'net_recharge' 
     1    91    67  2.700000000000E-007      0 'net_recharge' 
     1    91    66  2.700000000000E-007      0 'net_recharge' 
     1    91    65  2.700000000000E-007      0 'net_recharge' 
     1    91    64  2.700000000000E-007      0 'net_recharge' 
     1    91    63  2.700000000000E-007      0 'net_recharge' 
     1    91    62  2.700000000000E-007      0 'net_recharge' 
     1    91    61  2.700000000000E-007      0 'net_recharge' 
     1    91    60  2.700000000000E-007      0 'net_recharge' 
     1    91    59  2.700000000000E-007      0 'net_recharge' 
     1    91    58  2.700000000000E-007      0 'net_recharge' 
     1    91    57  2.700000000000E-007      0 'net_recharge' 
     1    91    56  2.700000000000E-007      0 'net_recharge' 
     1    91    55  2.700000000000E-007      0 'net_recharge' 
     1    90    99  2.700000000000E-007      0 'net_recharge' 
     1    90    98  2.700000000000E-007      0 'net_recharge' 
     1    90    97  2.700000000000E-007      0 'net_recharge' 
     1    90    96  2.700000000000E-007      0 'net_recharge' 
     1    90    95  2.700000000000E-007      0 'net_recharge' 
     1    90    94  2.700000000000E-007      0 'net_recharge' 
     1    90    93  2.700000000000E-007      0 'net_recharge' 
     1    90    92  2.700000000000E-007      0 'net_recharge' 
     1    90    91  2.700000000000E-007      0 'net_recharge' 
     1    90    90  2.700000000000E-007      0 'net_recharge' 
     1    90    89  2.700000000000E-007      0 'net_recharge' 
     1    90    88  2.700000000000E-007      0 'net_recharge' 
     1    90    87  2.700000000000E-007      0 'net_recharge' 
     1    90    86  2.700000000000E-007      0 'net_recharge' 
     1    90    85  2.700000000000E-007      0 'net_recharge' 
     1    90    84  2.700000000000E-007      0 'net_recharge' 
     1    90    83  2.700000000000E-007      0 'net_recharge' 
     1    90    82  2.700000000000E-007      0 'net_recharge' 
     1    90    81  2.700000000000E-007      0 'net_recharge' 
     1    90    80  2.700000000000E-007      0 'net_recharge' 
     1    90    79  2.700000000000E-007      0 'net_recharge' 
     1    90    78  2.700000000000E-007      0 'net_recharge' 
     1    90    77  2.700000000000E-007      0 'net_recharge' 
     1    90    76  2.700000000000E-007      0 'net_recharge' 
     1    90    75  2.700000000000E-007      0 'net_recharge' 
     1    90    74  2.700000000000E-007      0 'net_recharge' 
     1    90    73  2.700000000000E-007      0 'net_recharge' 
     1    90    72  2.700000000000E-007      0 'net_recharge' 
     1    90    71  2.700000000000E-007      0 'net_recharge' 
     1    90    70  2.700000000000E-007      0 'net_recharge' 
     1    90    69  2.700000000000E-007      0 'net_recharge' 
     1    90    68  2.700000000000E-007      0 'net_recharge' 
     1    90    67  2.700000000000E-007      0 'net_recharge' 
     1    90    66  2.700000000000E-007      0 'net_recharge' 
     1    90    65  2.700000000000E-007      0 'net_recharge' 
     1    90    64  2.700000000000E-007      0 'net_recharge' 
     1    90    63  2.700000000000E-007      0 'net_recharge' 
     1    90    62  2.700000000000E-007      0 'net_recharge' 
     1    90    61  2.700000000000E-007      0 'net_recharge' 
     1    90    60  2.700000000000E-007      0 'net_recharge' 
     1    90    59  2.700000000000E-007      0 'net_recharge' 
     1    90    58  2.700000000000E-007      0 'net_recharge' 
     1    90    57  2.700000000000E-007      0 'net_recharge' 
     1    90    56  2.700000000000E-007      0 'net_recharge' 
     1    90    55  2.700000000000E-007      0 'net_recharge' 
     1    89    99  2.700000000000E-007      0 'net_recharge' 
     1    89    98  2.700000000000E-007      0 'net_recharge' 
     1    89    97  2.700000000000E-007      0 'net_recharge' 
     1    89    96  2.700000000000E-007      0 'net_recharge' 
     1    89    95  2.700000000000E-007      0 'net_recharge' 
     1    89    94  2.700000000000E-007      0 'net_recharge' 
     1    89    93  2.700000000000E-007      0 'net_recharge' 
     1    89    92  2.700000000000E-007      0 'net_recharge' 
     1    89    91  2.700000000000E-007      0 'net_recharge' 
     1    89    90  2.700000000000E-007      0 'net_recharge' 
     1    89    89  2.700000000000E-007      0 'net_recharge' 
     1    89    88  2.700000000000E-007      0 'net_recharge' 
     1    89    87  2.700000000000E-007      0 'net_recharge' 
     1    89    86  2.700000000000E-007      0 'net_recharge' 
     1    89    85  2.700000000000E-007      0 'net_recharge' 
     1    89    84  2.700000000000E-007      0 'net_recharge' 
     1    89    83  2.700000000000E-007      0 'net_recharge' 
     1    89    82  2.700000000000E-007      0 'net_recharge' 
     1    89    81  2.700000000000E-007      0 'net_recharge' 
     1    89    80  2.700000000000E-007      0 'net_recharge' 
     1    89    79  2.700000000000E-007      0 'net_recharge' 
     1    89    78  2.700000000000E-007      0 'net_recharge' 
     1    89    77  2.700000000000E-007      0 'net_recharge' 
     1    89    76  2.700000000000E-007      0 'net_recharge' 
     1    89    75  2.700000000000E-007      0 'net_recharge' 
     1    89    74  2.700000000000E-007      0 'net_recharge' 
     1    89    73  2.700000000000E-007      0 'net_recharge' 
     1    89    72  2.700000000000E-007      0 'net_recharge' 
     1    89    71  2.700000000000E-007      0 'net_recharge' 
     1    89    70  2.700000000000E-007      0 'net_recharge' 
     1    89    69  2.700000000000E-007      0 'net_recharge' 
     1    89    68  2.700000000000E-007      0 'net_recharge' 
     1    89    67  2.700000000000E-007      0 'net_recharge' 
     1    89    66  2.700000000000E-007      0 'net_recharge' 
     1    89    65  2.700000000000E-007      0 'net_recharge' 
     1    89    64  2.700000000000E-007      0 'net_recharge' 
     1    89    63  2.700000000000E-007      0 'net_recharge' 
     1    89    62  2.700000000000E-007      0 'net_recharge' 
     1    89    61  2.700000000000E-007      0 'net_recharge' 
     1    89    60  2.700000000000E-007      0 'net_recharge' 
     1    89    59  2.700000000000E-007      0 'net_recharge' 
     1    89    58  2.700000000000E-007      0 'net_recharge' 
     1    89    57  2.700000000000E-007      0 'net_recharge' 
     1    89    56  2.700000000000E-007      0 'net_recharge' 
     1    89    55  2.700000000000E-007      0 'net_recharge' 
     1    88    99  2.700000000000E-007      0 'net_recharge' 
     1    88    98  2.700000000000E-007      0 'net_recharge' 
     1    88    97  2.700000000000E-007      0 'net_recharge' 
     1    88    96  2.700000000000E-007      0 'net_recharge' 
     1    88    95  2.700000000000E-007      0 'net_recharge' 
     1    88    94  2.700000000000E-007      0 'net_recharge' 
     1    88    93  2.700000000000E-007      0 'net_recharge' 
     1    88    92  2.700000000000E-007      0 'net_recharge' 
     1    88    91  2.700000000000E-007      0 'net_recharge' 
     1    88    90  2.700000000000E-007      0 'net_recharge' 
     1    88    89  2.700000000000E-007      0 'net_recharge' 
     1    88    88  2.700000000000E-007      0 'net_recharge' 
     1    88    87  2.700000000000E-007      0 'net_recharge' 
     1    88    86  2.700000000000E-007      0 'net_recharge' 
     1    88    85  2.700000000000E-007      0 'net_recharge' 
     1    88    84  2.700000000000E-007      0 'net_recharge' 
     1    88    83  2.700000000000E-007      0 'net_recharge' 
     1    88    82  2.700000000000E-007      0 'net_recharge' 
     1    88    81  2.700000000000E-007      0 'net_recharge' 
     1    88    80  2.700000000000E-007      0 'net_recharge' 
     1    88    79  2.700000000000E-007      0 'net_recharge' 
     1    88    78  2.700000000000E-007      0 'net_recharge' 
     1    88    77  2.700000000000E-007      0 'net_recharge' 
     1    88    76  2.700000000000E-007      0 'net_recharge' 
     1    88    75  2.700000000000E-007      0 'net_recharge' 
     1    88    74  2.700000000000E-007      0 'net_recharge' 
     1    88    73  2.700000000000E-007      0 'net_recharge' 
     1    88    72  2.700000000000E-007      0 'net_recharge' 
     1    88    71  2.700000000000E-007      0 'net_recharge' 
     1    88    70  2.700000000000E-007      0 'net_recharge' 
     1    88    69  2.700000000000E-007      0 'net_recharge' 
     1    88    68  2.700000000000E-007      0 'net_recharge' 
     1    88    67  2.700000000000E-007      0 'net_recharge' 
     1    88    66  2.700000000000E-007      0 'net_recharge' 
     1    88    65  2.700000000000E-007      0 'net_recharge' 
     1    88    64  2.700000000000E-007      0 'net_recharge' 
     1    88    63  2.700000000000E-007      0 'net_recharge' 
     1    88    62  2.700000000000E-007      0 'net_recharge' 
     1    88    61  2.700000000000E-007      0 'net_recharge' 
     1    88    60  2.700000000000E-007      0 'net_recharge' 
     1    88    59  2.700000000000E-007      0 'net_recharge' 
     1    88    58  2.700000000000E-007      0 'net_recharge' 
     1    88    57  2.700000000000E-007      0 'net_recharge' 
     1    88    56  2.700000000000E-007      0 'net_recharge' 
     1    88    55  2.700000000000E-007      0 'net_recharge' 
     1    87    99  2.700000000000E-007      0 'net_recharge' 
     1    87    98  2.700000000000E-007      0 'net_recharge' 
     1    87    97  2.700000000000E-007      0 'net_recharge' 
     1    87    96  2.700000000000E-007      0 'net_recharge' 
     1    87    95  2.700000000000E-007      0 'net_recharge' 
     1    87    94  2.700000000000E-007      0 'net_recharge' 
     1    87    93  2.700000000000E-007      0 'net_recharge' 
     1    87    92  2.700000000000E-007      0 'net_recharge' 
     1    87    91  2.700000000000E-007      0 'net_recharge' 
     1    87    90  2.700000000000E-007      0 'net_recharge' 
     1    87    89  2.700000000000E-007      0 'net_recharge' 
     1    87    88  2.700000000000E-007      0 'net_recharge' 
     1    87    87  2.700000000000E-007      0 'net_recharge' 
     1    87    86  2.700000000000E-007      0 'net_recharge' 
     1    87    85  2.700000000000E-007      0 'net_recharge' 
     1    87    84  2.700000000000E-007      0 'net_recharge' 