# STO: Storage package file created on 28-08-2024 by ModelMuse version 5.1.1.0.
BEGIN OPTIONS
    SAVE_FLOWS
END OPTIONS

BEGIN GRIDDATA
  ICONVERT LAYERED IPRN     5
    CONSTANT      1 # ICONVERT 1
    CONSTANT      1 # ICONVERT 2
    CONSTANT      1 # ICONVERT 3
    CONSTANT      1 # ICONVERT 4
    CONSTANT      1 # ICONVERT 5
    CONSTANT      1 # ICONVERT 6
  SS LAYERED IPRN    12
    CONSTANT   1.000000000000E-005  # SS 1

    CONSTANT   1.000000000000E-005  # SS 2

    CONSTANT   1.000000000000E-009  # SS 3

    CONSTANT   1.000000000000E-005  # SS 4

    CONSTANT   1.000000000000E-009  # SS 5

    CONSTANT   1.000000000000E-006  # SS 6

  SY LAYERED IPRN    12
    CONSTANT   2.000000000000E-001  # SY 1

    CONSTANT   2.000000000000E-001  # SY 2

    CONSTANT   1.000000000000E-005  # SY 3

    CONSTANT   1.000000000000E-001  # SY 4

    CONSTANT   1.000000000000E-006  # SY 5

    CONSTANT   8.000000000000E-002  # SY 6

END GRIDDATA

BEGIN PERIOD      1
  STEADY-STATE
END PERIOD 

