# Output Control file created on 28-08-2024 by ModelMuse version 5.1.1.0.
BEGIN OPTIONS
  BUDGET FILEOUT 'STAS_STEADYSTATE.cbc'
  HEAD FILEOUT 'STAS_STEADYSTATE.bhd'
END OPTIONS

BEGIN PERIOD      1
  SAVE HEAD ALL
  PRINT BUDGET ALL
  SAVE BUDGET ALL
END PERIOD 

