# Initial Conditions Package file created on 28-08-2024 by ModelMuse version 5.1.1.0.
BEGIN OPTIONS
END OPTIONS

BEGIN GRIDDATA
  STRT LAYERED
    INTERNAL IPRN     12 # STRT Kalahari Aquifer
        1.295000000000E+003   1.295000000000E+003   1.345000000000E+003   1.345000000000E+003   1.345000000000E+003   1.345000000000E+003   1.345000000000E+003   1.345000000000E+003   1.345000000000E+003   1.319000000000E+003 
        1.319000000000E+003   1.319000000000E+003   1.364000000000E+003   1.364000000000E+003   1.364000000000E+003   1.364000000000E+003   1.364000000000E+003   1.364000000000E+003   1.364000000000E+003   1.364000000000E+003 
        1.372000000000E+003   1.372000000000E+003   1.390000000000E+003   1.390000000000E+003   1.386000000000E+003   1.386000000000E+003   1.423000000000E+003   1.423000000000E+003   1.423000000000E+003   1.423000000000E+003 
        1.423000000000E+003   1.423000000000E+003   1.423000000000E+003   1.437000000000E+003   1.437000000000E+003   1.437000000000E+003   1.437000000000E+003   1.431000000000E+003   1.420000000000E+003   1.409000000000E+003 
        1.390000000000E+003   1.390000000000E+003   1.390000000000E+003   1.390000000000E+003   1.390000000000E+003   1.373000000000E+003   1.373000000000E+003   1.299000000000E+003   1.274000000000E+003   1.274000000000E+003 
        1.274000000000E+003   1.274000000000E+003   1.273000000000E+003   1.272000000000E+003   1.272000000000E+003   1.275000000000E+003   1.274000000000E+003   1.274000000000E+003   1.273000000000E+003   1.278000000000E+003 
        1.278000000000E+003   1.278000000000E+003   1.278000000000E+003   1.256000000000E+003   1.256000000000E+003   1.256000000000E+003   1.256000000000E+003   1.230000000000E+003   1.230000000000E+003   1.207000000000E+003 
        1.207000000000E+003   1.207000000000E+003   1.203000000000E+003   1.190000000000E+003   1.190000000000E+003   1.184000000000E+003   1.181000000000E+003   1.171000000000E+003   1.155000000000E+003   1.155000000000E+003 
        1.157000000000E+003   1.154000000000E+003   1.151000000000E+003   1.142000000000E+003   1.142000000000E+003   1.139000000000E+003   1.137000000000E+003   1.137000000000E+003   1.139000000000E+003   1.139000000000E+003 
        1.118000000000E+003   1.118000000000E+003   1.111000000000E+003   1.105000000000E+003   1.097000000000E+003   1.091000000000E+003   1.091000000000E+003   1.091000000000E+003   1.091000000000E+003 
        1.295000000000E+003   1.295000000000E+003   1.295000000000E+003   1.345000000000E+003   1.345000000000E+003   1.345000000000E+003   1.345000000000E+003   1.345000000000E+003   1.345000000000E+003   1.345000000000E+003 
        1.319000000000E+003   1.319000000000E+003   1.319000000000E+003   1.364000000000E+003   1.364000000000E+003   1.364000000000E+003   1.364000000000E+003   1.364000000000E+003   1.364000000000E+003   1.364000000000E+003 
        1.364000000000E+003   1.372000000000E+003   1.372000000000E+003   1.390000000000E+003   1.390000000000E+003   1.386000000000E+003   1.386000000000E+003   1.423000000000E+003   1.423000000000E+003   1.423000000000E+003 
        1.423000000000E+003   1.423000000000E+003   1.423000000000E+003   1.437000000000E+003   1.437000000000E+003   1.437000000000E+003   1.437000000000E+003   1.431000000000E+003   1.420000000000E+003   1.409000000000E+003 
        1.390000000000E+003   1.390000000000E+003   1.390000000000E+003   1.390000000000E+003   1.390000000000E+003   1.373000000000E+003   1.373000000000E+003   1.299000000000E+003   1.274000000000E+003   1.274000000000E+003 
        1.274000000000E+003   1.274000000000E+003   1.273000000000E+003   1.272000000000E+003   1.272000000000E+003   1.275000000000E+003   1.274000000000E+003   1.274000000000E+003   1.273000000000E+003   1.277000000000E+003 
        1.278000000000E+003   1.278000000000E+003   1.278000000000E+003   1.276000000000E+003   1.256000000000E+003   1.256000000000E+003   1.256000000000E+003   1.230000000000E+003   1.230000000000E+003   1.230000000000E+003 
        1.207000000000E+003   1.207000000000E+003   1.203000000000E+003   1.200000000000E+003   1.190000000000E+003   1.184000000000E+003   1.181000000000E+003   1.171000000000E+003   1.166000000000E+003   1.165000000000E+003 
        1.162000000000E+003   1.158000000000E+003   1.156000000000E+003   1.143000000000E+003   1.140000000000E+003   1.139000000000E+003   1.137000000000E+003   1.142000000000E+003   1.139000000000E+003   1.139000000000E+003 
        1.118000000000E+003   1.118000000000E+003   1.111000000000E+003   1.105000000000E+003   1.097000000000E+003   1.091000000000E+003   1.091000000000E+003   1.091000000000E+003   1.091000000000E+003 
        1.295000000000E+003   1.295000000000E+003   1.295000000000E+003   1.345000000000E+003   1.345000000000E+003   1.345000000000E+003   1.345000000000E+003   1.345000000000E+003   1.345000000000E+003   1.345000000000E+003 
        1.319000000000E+003   1.319000000000E+003   1.319000000000E+003   1.319000000000E+003   1.319000000000E+003   1.364000000000E+003   1.364000000000E+003   1.364000000000E+003   1.364000000000E+003   1.364000000000E+003 
        1.364000000000E+003   1.364000000000E+003   1.372000000000E+003   1.372000000000E+003   1.390000000000E+003   1.390000000000E+003   1.386000000000E+003   1.386000000000E+003   1.423000000000E+003   1.423000000000E+003 
        1.423000000000E+003   1.423000000000E+003   1.423000000000E+003   1.423000000000E+003   1.437000000000E+003   1.437000000000E+003   1.437000000000E+003   1.431000000000E+003   1.420000000000E+003   1.409000000000E+003 
        1.390000000000E+003   1.390000000000E+003   1.390000000000E+003   1.390000000000E+003   1.373000000000E+003   1.373000000000E+003   1.373000000000E+003   1.299000000000E+003   1.298000000000E+003   1.274000000000E+003 
        1.274000000000E+003   1.274000000000E+003   1.273000000000E+003   1.272000000000E+003   1.272000000000E+003   1.275000000000E+003   1.274000000000E+003   1.274000000000E+003   1.273000000000E+003   1.277000000000E+003 
        1.278000000000E+003   1.278000000000E+003   1.278000000000E+003   1.276000000000E+003   1.256000000000E+003   1.256000000000E+003   1.256000000000E+003   1.252000000000E+003   1.230000000000E+003   1.230000000000E+003 
        1.207000000000E+003   1.207000000000E+003   1.203000000000E+003   1.200000000000E+003   1.197000000000E+003   1.192000000000E+003   1.186000000000E+003   1.179000000000E+003   1.175000000000E+003   1.171000000000E+003 
        1.170000000000E+003   1.168000000000E+003   1.159000000000E+003   1.145000000000E+003   1.156000000000E+003   1.159000000000E+003   1.146000000000E+003   1.142000000000E+003   1.139000000000E+003   1.139000000000E+003 
        1.118000000000E+003   1.118000000000E+003   1.111000000000E+003   1.105000000000E+003   1.097000000000E+003   1.091000000000E+003   1.091000000000E+003   1.091000000000E+003   1.091000000000E+003 
        1.295000000000E+003   1.295000000000E+003   1.295000000000E+003   1.345000000000E+003   1.345000000000E+003   1.345000000000E+003   1.345000000000E+003   1.345000000000E+003   1.345000000000E+003   1.345000000000E+003 
        1.345000000000E+003   1.319000000000E+003   1.319000000000E+003   1.319000000000E+003   1.319000000000E+003   1.319000000000E+003   1.364000000000E+003   1.364000000000E+003   1.364000000000E+003   1.364000000000E+003 
        1.364000000000E+003   1.364000000000E+003   1.364000000000E+003   1.372000000000E+003   1.372000000000E+003   1.390000000000E+003   1.390000000000E+003   1.386000000000E+003   1.386000000000E+003   1.423000000000E+003 
        1.423000000000E+003   1.423000000000E+003   1.423000000000E+003   1.423000000000E+003   1.437000000000E+003   1.437000000000E+003   1.437000000000E+003   1.431000000000E+003   1.420000000000E+003   1.409000000000E+003 
        1.390000000000E+003   1.390000000000E+003   1.390000000000E+003   1.390000000000E+003   1.373000000000E+003   1.373000000000E+003   1.314000000000E+003   1.299000000000E+003   1.298000000000E+003   1.274000000000E+003 
        1.274000000000E+003   1.274000000000E+003   1.273000000000E+003   1.272000000000E+003   1.272000000000E+003   1.275000000000E+003   1.274000000000E+003   1.274000000000E+003   1.273000000000E+003   1.277000000000E+003 
        1.278000000000E+003   1.278000000000E+003   1.278000000000E+003   1.276000000000E+003   1.273000000000E+003   1.256000000000E+003   1.256000000000E+003   1.252000000000E+003   1.230000000000E+003   1.230000000000E+003 
        1.220000000000E+003   1.216000000000E+003   1.214000000000E+003   1.211000000000E+003   1.209000000000E+003   1.202000000000E+003   1.196000000000E+003   1.190000000000E+003   1.188000000000E+003   1.182000000000E+003 
        1.176000000000E+003   1.174000000000E+003   1.163000000000E+003   1.161000000000E+003   1.164000000000E+003   1.155000000000E+003   1.158000000000E+003   1.151000000000E+003   1.148000000000E+003   1.145000000000E+003 
        1.136000000000E+003   1.126000000000E+003   1.116000000000E+003   1.093000000000E+003   1.104000000000E+003   1.100000000000E+003   1.100000000000E+003   1.100000000000E+003   1.100000000000E+003 
        1.295000000000E+003   1.295000000000E+003   1.295000000000E+003   1.295000000000E+003   1.345000000000E+003   1.345000000000E+003   1.345000000000E+003   1.345000000000E+003   1.345000000000E+003   1.345000000000E+003 
        1.345000000000E+003   1.345000000000E+003   1.319000000000E+003   1.319000000000E+003   1.319000000000E+003   1.319000000000E+003   1.319000000000E+003   1.364000000000E+003   1.364000000000E+003   1.364000000000E+003 
        1.364000000000E+003   1.364000000000E+003   1.364000000000E+003   1.364000000000E+003   1.372000000000E+003   1.372000000000E+003   1.390000000000E+003   1.390000000000E+003   1.386000000000E+003   1.386000000000E+003 
        1.423000000000E+003   1.423000000000E+003   1.423000000000E+003   1.423000000000E+003   1.447000000000E+003   1.437000000000E+003   1.437000000000E+003   1.431000000000E+003   1.420000000000E+003   1.409000000000E+003 
        1.390000000000E+003   1.390000000000E+003   1.390000000000E+003   1.373000000000E+003   1.373000000000E+003   1.373000000000E+003   1.314000000000E+003   1.299000000000E+003   1.298000000000E+003   1.274000000000E+003 
        1.274000000000E+003   1.274000000000E+003   1.273000000000E+003   1.272000000000E+003   1.272000000000E+003   1.275000000000E+003   1.274000000000E+003   1.274000000000E+003   1.273000000000E+003   1.277000000000E+003 
        1.282000000000E+003   1.278000000000E+003   1.278000000000E+003   1.276000000000E+003   1.273000000000E+003   1.256000000000E+003   1.256000000000E+003   1.252000000000E+003   1.245000000000E+003   1.241000000000E+003 
        1.236000000000E+003   1.228000000000E+003   1.225000000000E+003   1.220000000000E+003   1.217000000000E+003   1.210000000000E+003   1.205000000000E+003   1.201000000000E+003   1.195000000000E+003   1.194000000000E+003 
        1.190000000000E+003   1.179000000000E+003   1.164000000000E+003   1.175000000000E+003   1.173000000000E+003   1.168000000000E+003   1.161000000000E+003   1.158000000000E+003   1.153000000000E+003   1.146000000000E+003 
        1.142000000000E+003   1.127000000000E+003   1.127000000000E+003   1.114000000000E+003   1.113000000000E+003   1.112000000000E+003   1.112000000000E+003   1.112000000000E+003   1.112000000000E+003 
        1.295000000000E+003   1.295000000000E+003   1.295000000000E+003   1.295000000000E+003   1.345000000000E+003   1.345000000000E+003   1.345000000000E+003   1.345000000000E+003   1.345000000000E+003   1.345000000000E+003 
        1.345000000000E+003   1.345000000000E+003   1.319000000000E+003   1.319000000000E+003   1.319000000000E+003   1.319000000000E+003   1.319000000000E+003   1.319000000000E+003   1.317000000000E+003   1.364000000000E+003 
        1.364000000000E+003   1.364000000000E+003   1.364000000000E+003   1.364000000000E+003   1.364000000000E+003   1.372000000000E+003   1.372000000000E+003   1.390000000000E+003   1.390000000000E+003   1.386000000000E+003 
        1.386000000000E+003   1.423000000000E+003   1.423000000000E+003   1.423000000000E+003   1.447000000000E+003   1.437000000000E+003   1.437000000000E+003   1.431000000000E+003   1.420000000000E+003   1.409000000000E+003 
        1.390000000000E+003   1.390000000000E+003   1.390000000000E+003   1.373000000000E+003   1.373000000000E+003   1.328000000000E+003   1.314000000000E+003   1.299000000000E+003   1.298000000000E+003   1.288000000000E+003 
        1.274000000000E+003   1.274000000000E+003   1.273000000000E+003   1.272000000000E+003   1.272000000000E+003   1.275000000000E+003   1.274000000000E+003   1.274000000000E+003   1.273000000000E+003   1.277000000000E+003 
        1.282000000000E+003   1.285000000000E+003   1.278000000000E+003   1.276000000000E+003   1.273000000000E+003   1.271000000000E+003   1.263000000000E+003   1.259000000000E+003   1.250000000000E+003   1.250000000000E+003 
        1.243000000000E+003   1.238000000000E+003   1.234000000000E+003   1.231000000000E+003   1.224000000000E+003   1.219000000000E+003   1.214000000000E+003   1.209000000000E+003   1.205000000000E+003   1.199000000000E+003 
        1.190000000000E+003   1.183000000000E+003   1.181000000000E+003   1.178000000000E+003   1.179000000000E+003   1.176000000000E+003   1.175000000000E+003   1.168000000000E+003   1.163000000000E+003   1.155000000000E+003 
        1.146000000000E+003   1.140000000000E+003   1.132000000000E+003   1.127000000000E+003   1.129000000000E+003   1.124000000000E+003   1.124000000000E+003   1.124000000000E+003   1.140000000000E+003 
        1.295000000000E+003   1.295000000000E+003   1.295000000000E+003   1.295000000000E+003   1.345000000000E+003   1.345000000000E+003   1.345000000000E+003   1.345000000000E+003   1.345000000000E+003   1.345000000000E+003 
        1.345000000000E+003   1.345000000000E+003   1.343000000000E+003   1.319000000000E+003   1.319000000000E+003   1.319000000000E+003   1.319000000000E+003   1.319000000000E+003   1.319000000000E+003   1.317000000000E+003 
        1.364000000000E+003   1.364000000000E+003   1.364000000000E+003   1.364000000000E+003   1.364000000000E+003   1.364000000000E+003   1.372000000000E+003   1.372000000000E+003   1.390000000000E+003   1.390000000000E+003 
        1.386000000000E+003   1.386000000000E+003   1.423000000000E+003   1.423000000000E+003   1.447000000000E+003   1.448000000000E+003   1.451000000000E+003   1.430000000000E+003   1.412000000000E+003   1.402000000000E+003 
        1.394000000000E+003   1.384000000000E+003   1.375000000000E+003   1.373000000000E+003   1.373000000000E+003   1.328000000000E+003   1.314000000000E+003   1.299000000000E+003   1.298000000000E+003   1.288000000000E+003 
        1.274000000000E+003   1.274000000000E+003   1.273000000000E+003   1.272000000000E+003   1.272000000000E+003   1.275000000000E+003   1.274000000000E+003   1.274000000000E+003   1.273000000000E+003   1.277000000000E+003 
        1.282000000000E+003   1.285000000000E+003   1.292000000000E+003   1.281000000000E+003   1.284000000000E+003   1.274000000000E+003   1.270000000000E+003   1.259000000000E+003   1.256000000000E+003   1.254000000000E+003 
        1.251000000000E+003   1.244000000000E+003   1.239000000000E+003   1.233000000000E+003   1.228000000000E+003   1.225000000000E+003   1.220000000000E+003   1.215000000000E+003   1.210000000000E+003   1.205000000000E+003 
        1.199000000000E+003   1.193000000000E+003   1.190000000000E+003   1.189000000000E+003   1.183000000000E+003   1.184000000000E+003   1.180000000000E+003   1.175000000000E+003   1.166000000000E+003   1.162000000000E+003 
        1.157000000000E+003   1.147000000000E+003   1.140000000000E+003   1.141000000000E+003   1.139000000000E+003   1.135000000000E+003   1.135000000000E+003   1.140000000000E+003   1.140000000000E+003 
        1.295000000000E+003   1.295000000000E+003   1.295000000000E+003   1.295000000000E+003   1.295000000000E+003   1.345000000000E+003   1.345000000000E+003   1.345000000000E+003   1.345000000000E+003   1.345000000000E+003 
        1.345000000000E+003   1.345000000000E+003   1.343000000000E+003   1.319000000000E+003   1.319000000000E+003   1.319000000000E+003   1.319000000000E+003   1.319000000000E+003   1.319000000000E+003   1.319000000000E+003 
        1.317000000000E+003   1.317000000000E+003   1.364000000000E+003   1.364000000000E+003   1.364000000000E+003   1.364000000000E+003   1.364000000000E+003   1.372000000000E+003   1.372000000000E+003   1.390000000000E+003 
        1.390000000000E+003   1.386000000000E+003   1.386000000000E+003   1.410000000000E+003   1.431000000000E+003   1.457000000000E+003   1.478000000000E+003   1.452000000000E+003   1.417000000000E+003   1.399000000000E+003 
        1.387000000000E+003   1.373000000000E+003   1.361000000000E+003   1.352000000000E+003   1.342000000000E+003   1.328000000000E+003   1.314000000000E+003   1.299000000000E+003   1.298000000000E+003   1.288000000000E+003 
        1.281000000000E+003   1.279000000000E+003   1.276000000000E+003   1.277000000000E+003   1.278000000000E+003   1.281000000000E+003   1.278000000000E+003   1.282000000000E+003   1.278000000000E+003   1.282000000000E+003 
        1.284000000000E+003   1.286000000000E+003   1.289000000000E+003   1.287000000000E+003   1.281000000000E+003   1.279000000000E+003   1.274000000000E+003   1.266000000000E+003   1.263000000000E+003   1.259000000000E+003 
        1.256000000000E+003   1.251000000000E+003   1.242000000000E+003   1.237000000000E+003   1.232000000000E+003   1.228000000000E+003   1.227000000000E+003   1.221000000000E+003   1.216000000000E+003   1.214000000000E+003 
        1.207000000000E+003   1.203000000000E+003   1.198000000000E+003   1.192000000000E+003   1.188000000000E+003   1.189000000000E+003   1.184000000000E+003   1.180000000000E+003   1.174000000000E+003   1.167000000000E+003 
        1.162000000000E+003   1.158000000000E+003   1.154000000000E+003   1.150000000000E+003   1.146000000000E+003   1.143000000000E+003   1.140000000000E+003   1.140000000000E+003   1.140000000000E+003 
        1.295000000000E+003   1.295000000000E+003   1.295000000000E+003   1.295000000000E+003   1.295000000000E+003   1.345000000000E+003   1.345000000000E+003   1.345000000000E+003   1.345000000000E+003   1.345000000000E+003 
        1.345000000000E+003   1.345000000000E+003   1.343000000000E+003   1.335000000000E+003   1.319000000000E+003   1.319000000000E+003   1.319000000000E+003   1.319000000000E+003   1.319000000000E+003   1.319000000000E+003 
        1.319000000000E+003   1.317000000000E+003   1.317000000000E+003   1.364000000000E+003   1.364000000000E+003   1.364000000000E+003   1.364000000000E+003   1.364000000000E+003   1.372000000000E+003   1.372000000000E+003 
        1.390000000000E+003   1.390000000000E+003   1.415000000000E+003   1.436000000000E+003   1.442000000000E+003   1.481000000000E+003   1.484000000000E+003   1.458000000000E+003   1.437000000000E+003   1.406000000000E+003 
        1.391000000000E+003   1.369000000000E+003   1.356000000000E+003   1.342000000000E+003   1.336000000000E+003   1.322000000000E+003   1.313000000000E+003   1.303000000000E+003   1.294000000000E+003   1.286000000000E+003 
        1.279000000000E+003   1.275000000000E+003   1.271000000000E+003   1.282000000000E+003   1.288000000000E+003   1.288000000000E+003   1.290000000000E+003   1.285000000000E+003   1.287000000000E+003   1.286000000000E+003 
        1.283000000000E+003   1.285000000000E+003   1.285000000000E+003   1.285000000000E+003   1.283000000000E+003   1.279000000000E+003   1.273000000000E+003   1.268000000000E+003   1.261000000000E+003   1.261000000000E+003 
        1.260000000000E+003   1.253000000000E+003   1.247000000000E+003   1.243000000000E+003   1.239000000000E+003   1.234000000000E+003   1.231000000000E+003   1.227000000000E+003   1.222000000000E+003   1.217000000000E+003 
        1.212000000000E+003   1.210000000000E+003   1.206000000000E+003   1.199000000000E+003   1.196000000000E+003   1.190000000000E+003   1.190000000000E+003   1.185000000000E+003   1.176000000000E+003   1.175000000000E+003 
        1.169000000000E+003   1.159000000000E+003   1.158000000000E+003   1.158000000000E+003   1.157000000000E+003   1.150000000000E+003   1.148000000000E+003   1.148000000000E+003   1.148000000000E+003 
        1.295000000000E+003   1.295000000000E+003   1.295000000000E+003   1.295000000000E+003   1.295000000000E+003   1.345000000000E+003   1.345000000000E+003   1.345000000000E+003   1.345000000000E+003   1.345000000000E+003 
        1.345000000000E+003   1.345000000000E+003   1.343000000000E+003   1.335000000000E+003   1.334000000000E+003   1.319000000000E+003   1.319000000000E+003   1.319000000000E+003   1.319000000000E+003   1.319000000000E+003 
        1.319000000000E+003   1.319000000000E+003   1.317000000000E+003   1.317000000000E+003   1.320000000000E+003   1.364000000000E+003   1.364000000000E+003   1.364000000000E+003   1.364000000000E+003   1.372000000000E+003 
        1.372000000000E+003   1.391000000000E+003   1.408000000000E+003   1.431000000000E+003   1.465000000000E+003   1.479000000000E+003   1.482000000000E+003   1.462000000000E+003   1.445000000000E+003   1.418000000000E+003 
        1.389000000000E+003   1.363000000000E+003   1.349000000000E+003   1.336000000000E+003   1.324000000000E+003   1.314000000000E+003   1.305000000000E+003   1.294000000000E+003   1.291000000000E+003   1.286000000000E+003 
        1.276000000000E+003   1.277000000000E+003   1.278000000000E+003   1.290000000000E+003   1.286000000000E+003   1.288000000000E+003   1.291000000000E+003   1.288000000000E+003   1.289000000000E+003   1.286000000000E+003 
        1.284000000000E+003   1.284000000000E+003   1.283000000000E+003   1.283000000000E+003   1.281000000000E+003   1.279000000000E+003   1.276000000000E+003   1.279000000000E+003   1.266000000000E+003   1.264000000000E+003 
        1.263000000000E+003   1.258000000000E+003   1.249000000000E+003   1.248000000000E+003   1.242000000000E+003   1.237000000000E+003   1.233000000000E+003   1.229000000000E+003   1.222000000000E+003   1.223000000000E+003 
        1.221000000000E+003   1.216000000000E+003   1.213000000000E+003   1.205000000000E+003   1.206000000000E+003   1.201000000000E+003   1.198000000000E+003   1.192000000000E+003   1.186000000000E+003   1.179000000000E+003 
        1.176000000000E+003   1.171000000000E+003   1.167000000000E+003   1.165000000000E+003   1.160000000000E+003   1.155000000000E+003   1.153000000000E+003   1.153000000000E+003   1.153000000000E+003 
        1.295000000000E+003   1.295000000000E+003   1.295000000000E+003   1.295000000000E+003   1.295000000000E+003   1.295000000000E+003   1.345000000000E+003   1.345000000000E+003   1.345000000000E+003   1.345000000000E+003 
        1.345000000000E+003   1.345000000000E+003   1.343000000000E+003   1.335000000000E+003   1.334000000000E+003   1.334000000000E+003   1.319000000000E+003   1.319000000000E+003   1.319000000000E+003   1.319000000000E+003 
        1.319000000000E+003   1.319000000000E+003   1.319000000000E+003   1.317000000000E+003   1.317000000000E+003   1.320000000000E+003   1.320000000000E+003   1.364000000000E+003   1.364000000000E+003   1.364000000000E+003 
        1.403000000000E+003   1.385000000000E+003   1.393000000000E+003   1.428000000000E+003   1.459000000000E+003   1.475000000000E+003   1.466000000000E+003   1.450000000000E+003   1.440000000000E+003   1.417000000000E+003 
        1.386000000000E+003   1.367000000000E+003   1.344000000000E+003   1.329000000000E+003   1.326000000000E+003   1.311000000000E+003   1.302000000000E+003   1.291000000000E+003   1.286000000000E+003   1.278000000000E+003 
        1.275000000000E+003   1.279000000000E+003   1.282000000000E+003   1.283000000000E+003   1.286000000000E+003   1.290000000000E+003   1.291000000000E+003   1.288000000000E+003   1.289000000000E+003   1.285000000000E+003 
        1.282000000000E+003   1.281000000000E+003   1.282000000000E+003   1.281000000000E+003   1.279000000000E+003   1.276000000000E+003   1.274000000000E+003   1.268000000000E+003   1.264000000000E+003   1.263000000000E+003 
        1.261000000000E+003   1.257000000000E+003   1.250000000000E+003   1.249000000000E+003   1.244000000000E+003   1.240000000000E+003   1.236000000000E+003   1.232000000000E+003   1.231000000000E+003   1.227000000000E+003 
        1.221000000000E+003   1.216000000000E+003   1.216000000000E+003   1.216000000000E+003   1.211000000000E+003   1.209000000000E+003   1.203000000000E+003   1.199000000000E+003   1.190000000000E+003   1.186000000000E+003 
        1.179000000000E+003   1.176000000000E+003   1.172000000000E+003   1.170000000000E+003   1.170000000000E+003   1.160000000000E+003   1.158000000000E+003   1.158000000000E+003   1.158000000000E+003 
        1.295000000000E+003   1.295000000000E+003   1.295000000000E+003   1.295000000000E+003   1.295000000000E+003   1.295000000000E+003   1.345000000000E+003   1.345000000000E+003   1.345000000000E+003   1.345000000000E+003 
        1.345000000000E+003   1.345000000000E+003   1.343000000000E+003   1.335000000000E+003   1.334000000000E+003   1.329000000000E+003   1.334000000000E+003   1.334000000000E+003   1.319000000000E+003   1.319000000000E+003 
        1.319000000000E+003   1.319000000000E+003   1.319000000000E+003   1.319000000000E+003   1.317000000000E+003   1.317000000000E+003   1.320000000000E+003   1.320000000000E+003   1.343000000000E+003   1.343000000000E+003 
        1.383000000000E+003   1.379000000000E+003   1.387000000000E+003   1.411000000000E+003   1.429000000000E+003   1.460000000000E+003   1.443000000000E+003   1.430000000000E+003   1.418000000000E+003   1.404000000000E+003 
        1.386000000000E+003   1.364000000000E+003   1.350000000000E+003   1.330000000000E+003   1.313000000000E+003   1.296000000000E+003   1.290000000000E+003   1.283000000000E+003   1.280000000000E+003   1.281000000000E+003 
        1.279000000000E+003   1.281000000000E+003   1.283000000000E+003   1.285000000000E+003   1.284000000000E+003   1.286000000000E+003   1.290000000000E+003   1.296000000000E+003   1.286000000000E+003   1.285000000000E+003 
        1.284000000000E+003   1.280000000000E+003   1.277000000000E+003   1.276000000000E+003   1.274000000000E+003   1.274000000000E+003   1.268000000000E+003   1.266000000000E+003   1.260000000000E+003   1.263000000000E+003 
        1.258000000000E+003   1.254000000000E+003   1.252000000000E+003   1.251000000000E+003   1.246000000000E+003   1.242000000000E+003   1.242000000000E+003   1.238000000000E+003   1.233000000000E+003   1.231000000000E+003 
        1.227000000000E+003   1.222000000000E+003   1.221000000000E+003   1.229000000000E+003   1.213000000000E+003   1.209000000000E+003   1.206000000000E+003   1.205000000000E+003   1.198000000000E+003   1.192000000000E+003 
        1.186000000000E+003   1.182000000000E+003   1.177000000000E+003   1.179000000000E+003   1.176000000000E+003   1.166000000000E+003   1.166000000000E+003   1.166000000000E+003   1.166000000000E+003 
        1.295000000000E+003   1.295000000000E+003   1.295000000000E+003   1.295000000000E+003   1.295000000000E+003   1.295000000000E+003   1.345000000000E+003   1.345000000000E+003   1.345000000000E+003   1.345000000000E+003 
        1.345000000000E+003   1.345000000000E+003   1.343000000000E+003   1.335000000000E+003   1.334000000000E+003   1.329000000000E+003   1.334000000000E+003   1.334000000000E+003   1.334000000000E+003   1.334000000000E+003 
        1.319000000000E+003   1.319000000000E+003   1.319000000000E+003   1.319000000000E+003   1.319000000000E+003   1.317000000000E+003   1.317000000000E+003   1.320000000000E+003   1.320000000000E+003   1.343000000000E+003 
        1.354000000000E+003   1.366000000000E+003   1.382000000000E+003   1.390000000000E+003   1.408000000000E+003   1.423000000000E+003   1.447000000000E+003   1.423000000000E+003   1.406000000000E+003   1.390000000000E+003 
        1.377000000000E+003   1.363000000000E+003   1.348000000000E+003   1.328000000000E+003   1.306000000000E+003   1.291000000000E+003   1.283000000000E+003   1.283000000000E+003   1.287000000000E+003   1.280000000000E+003 
        1.282000000000E+003   1.281000000000E+003   1.281000000000E+003   1.284000000000E+003   1.287000000000E+003   1.286000000000E+003   1.286000000000E+003   1.287000000000E+003   1.286000000000E+003   1.285000000000E+003 
        1.277000000000E+003   1.270000000000E+003   1.273000000000E+003   1.272000000000E+003   1.271000000000E+003   1.269000000000E+003   1.263000000000E+003   1.259000000000E+003   1.258000000000E+003   1.258000000000E+003 
        1.253000000000E+003   1.250000000000E+003   1.250000000000E+003   1.248000000000E+003   1.243000000000E+003   1.244000000000E+003   1.242000000000E+003   1.237000000000E+003   1.233000000000E+003   1.232000000000E+003 
        1.228000000000E+003   1.227000000000E+003   1.227000000000E+003   1.223000000000E+003   1.220000000000E+003   1.213000000000E+003   1.208000000000E+003   1.211000000000E+003   1.204000000000E+003   1.194000000000E+003 
        1.191000000000E+003   1.185000000000E+003   1.184000000000E+003   1.179000000000E+003   1.177000000000E+003   1.173000000000E+003   1.173000000000E+003   1.166000000000E+003   1.166000000000E+003 
        1.295000000000E+003   1.295000000000E+003   1.295000000000E+003   1.295000000000E+003   1.295000000000E+003   1.295000000000E+003   1.295000000000E+003   1.345000000000E+003   1.345000000000E+003   1.345000000000E+003 