# Discretization File created on 28-08-2024 by ModelMuse version 5.1.1.0.
# Upper left corner: (124299.650623836, 7511231.89824845)
# Lower left corner: (124299.650623836, 7016231.89824845)
# Upper right corner: (619299.650623836, 7511231.89824845)
# Lower right corner: (619299.650623836, 7016231.89824845)
# Grid angle (in degrees counterclockwise): 0
# Number of active cells = 33332.
BEGIN OPTIONS
  LENGTH_UNITS METERS
  XORIGIN  1.242996506238E+005 
  YORIGIN  7.016231898248E+006 
  ANGROT  0.000000000000E+000 
END OPTIONS

BEGIN DIMENSIONS
  NLAY      6
  NROW     99
  NCOL     99
END DIMENSIONS


BEGIN GRIDDATA
  DELR IPRN    12
    CONSTANT   5.000000000000E+003  # DELR

  DELC IPRN    12
    CONSTANT   5.000000000000E+003  # DELC

  TOP LAYERED
    INTERNAL IPRN     12 # TOP
        1.297000000000E+003   1.297000000000E+003   1.347000000000E+003   1.347000000000E+003   1.347000000000E+003   1.347000000000E+003   1.347000000000E+003   1.347000000000E+003   1.347000000000E+003   1.321000000000E+003 
        1.321000000000E+003   1.321000000000E+003   1.366000000000E+003   1.366000000000E+003   1.366000000000E+003   1.366000000000E+003   1.366000000000E+003   1.366000000000E+003   1.366000000000E+003   1.366000000000E+003 
        1.374000000000E+003   1.374000000000E+003   1.392000000000E+003   1.392000000000E+003   1.388000000000E+003   1.388000000000E+003   1.425000000000E+003   1.425000000000E+003   1.425000000000E+003   1.425000000000E+003 
        1.425000000000E+003   1.425000000000E+003   1.425000000000E+003   1.439000000000E+003   1.439000000000E+003   1.439000000000E+003   1.439000000000E+003   1.433000000000E+003   1.422000000000E+003   1.411000000000E+003 
        1.392000000000E+003   1.392000000000E+003   1.392000000000E+003   1.392000000000E+003   1.392000000000E+003   1.375000000000E+003   1.375000000000E+003   1.301000000000E+003   1.276000000000E+003   1.276000000000E+003 
        1.276000000000E+003   1.276000000000E+003   1.275000000000E+003   1.274000000000E+003   1.274000000000E+003   1.277000000000E+003   1.276000000000E+003   1.276000000000E+003   1.275000000000E+003   1.280000000000E+003 
        1.280000000000E+003   1.280000000000E+003   1.280000000000E+003   1.258000000000E+003   1.258000000000E+003   1.258000000000E+003   1.258000000000E+003   1.232000000000E+003   1.232000000000E+003   1.209000000000E+003 
        1.209000000000E+003   1.209000000000E+003   1.205000000000E+003   1.192000000000E+003   1.192000000000E+003   1.186000000000E+003   1.183000000000E+003   1.173000000000E+003   1.157000000000E+003   1.157000000000E+003 
        1.159000000000E+003   1.156000000000E+003   1.153000000000E+003   1.144000000000E+003   1.144000000000E+003   1.141000000000E+003   1.139000000000E+003   1.139000000000E+003   1.141000000000E+003   1.141000000000E+003 
        1.120000000000E+003   1.120000000000E+003   1.113000000000E+003   1.107000000000E+003   1.099000000000E+003   1.093000000000E+003   1.093000000000E+003   1.093000000000E+003   1.093000000000E+003 
        1.297000000000E+003   1.297000000000E+003   1.297000000000E+003   1.347000000000E+003   1.347000000000E+003   1.347000000000E+003   1.347000000000E+003   1.347000000000E+003   1.347000000000E+003   1.347000000000E+003 
        1.321000000000E+003   1.321000000000E+003   1.321000000000E+003   1.366000000000E+003   1.366000000000E+003   1.366000000000E+003   1.366000000000E+003   1.366000000000E+003   1.366000000000E+003   1.366000000000E+003 
        1.366000000000E+003   1.374000000000E+003   1.374000000000E+003   1.392000000000E+003   1.392000000000E+003   1.388000000000E+003   1.388000000000E+003   1.425000000000E+003   1.425000000000E+003   1.425000000000E+003 
        1.425000000000E+003   1.425000000000E+003   1.425000000000E+003   1.439000000000E+003   1.439000000000E+003   1.439000000000E+003   1.439000000000E+003   1.433000000000E+003   1.422000000000E+003   1.411000000000E+003 
        1.392000000000E+003   1.392000000000E+003   1.392000000000E+003   1.392000000000E+003   1.392000000000E+003   1.375000000000E+003   1.375000000000E+003   1.301000000000E+003   1.276000000000E+003   1.276000000000E+003 
        1.276000000000E+003   1.276000000000E+003   1.275000000000E+003   1.274000000000E+003   1.274000000000E+003   1.277000000000E+003   1.276000000000E+003   1.276000000000E+003   1.275000000000E+003   1.279000000000E+003 
        1.280000000000E+003   1.280000000000E+003   1.280000000000E+003   1.278000000000E+003   1.258000000000E+003   1.258000000000E+003   1.258000000000E+003   1.232000000000E+003   1.232000000000E+003   1.232000000000E+003 
        1.209000000000E+003   1.209000000000E+003   1.205000000000E+003   1.202000000000E+003   1.192000000000E+003   1.186000000000E+003   1.183000000000E+003   1.173000000000E+003   1.168000000000E+003   1.167000000000E+003 
        1.164000000000E+003   1.160000000000E+003   1.158000000000E+003   1.145000000000E+003   1.142000000000E+003   1.141000000000E+003   1.139000000000E+003   1.144000000000E+003   1.141000000000E+003   1.141000000000E+003 
        1.120000000000E+003   1.120000000000E+003   1.113000000000E+003   1.107000000000E+003   1.099000000000E+003   1.093000000000E+003   1.093000000000E+003   1.093000000000E+003   1.093000000000E+003 
        1.297000000000E+003   1.297000000000E+003   1.297000000000E+003   1.347000000000E+003   1.347000000000E+003   1.347000000000E+003   1.347000000000E+003   1.347000000000E+003   1.347000000000E+003   1.347000000000E+003 
        1.321000000000E+003   1.321000000000E+003   1.321000000000E+003   1.321000000000E+003   1.321000000000E+003   1.366000000000E+003   1.366000000000E+003   1.366000000000E+003   1.366000000000E+003   1.366000000000E+003 
        1.366000000000E+003   1.366000000000E+003   1.374000000000E+003   1.374000000000E+003   1.392000000000E+003   1.392000000000E+003   1.388000000000E+003   1.388000000000E+003   1.425000000000E+003   1.425000000000E+003 
        1.425000000000E+003   1.425000000000E+003   1.425000000000E+003   1.425000000000E+003   1.439000000000E+003   1.439000000000E+003   1.439000000000E+003   1.433000000000E+003   1.422000000000E+003   1.411000000000E+003 
        1.392000000000E+003   1.392000000000E+003   1.392000000000E+003   1.392000000000E+003   1.375000000000E+003   1.375000000000E+003   1.375000000000E+003   1.301000000000E+003   1.300000000000E+003   1.276000000000E+003 
        1.276000000000E+003   1.276000000000E+003   1.275000000000E+003   1.274000000000E+003   1.274000000000E+003   1.277000000000E+003   1.276000000000E+003   1.276000000000E+003   1.275000000000E+003   1.279000000000E+003 
        1.280000000000E+003   1.280000000000E+003   1.280000000000E+003   1.278000000000E+003   1.258000000000E+003   1.258000000000E+003   1.258000000000E+003   1.254000000000E+003   1.232000000000E+003   1.232000000000E+003 
        1.209000000000E+003   1.209000000000E+003   1.205000000000E+003   1.202000000000E+003   1.199000000000E+003   1.194000000000E+003   1.188000000000E+003   1.181000000000E+003   1.177000000000E+003   1.173000000000E+003 
        1.172000000000E+003   1.170000000000E+003   1.161000000000E+003   1.147000000000E+003   1.158000000000E+003   1.161000000000E+003   1.148000000000E+003   1.144000000000E+003   1.141000000000E+003   1.141000000000E+003 
        1.120000000000E+003   1.120000000000E+003   1.113000000000E+003   1.107000000000E+003   1.099000000000E+003   1.093000000000E+003   1.093000000000E+003   1.093000000000E+003   1.093000000000E+003 
        1.297000000000E+003   1.297000000000E+003   1.297000000000E+003   1.347000000000E+003   1.347000000000E+003   1.347000000000E+003   1.347000000000E+003   1.347000000000E+003   1.347000000000E+003   1.347000000000E+003 
        1.347000000000E+003   1.321000000000E+003   1.321000000000E+003   1.321000000000E+003   1.321000000000E+003   1.321000000000E+003   1.366000000000E+003   1.366000000000E+003   1.366000000000E+003   1.366000000000E+003 
        1.366000000000E+003   1.366000000000E+003   1.366000000000E+003   1.374000000000E+003   1.374000000000E+003   1.392000000000E+003   1.392000000000E+003   1.388000000000E+003   1.388000000000E+003   1.425000000000E+003 
        1.425000000000E+003   1.425000000000E+003   1.425000000000E+003   1.425000000000E+003   1.439000000000E+003   1.439000000000E+003   1.439000000000E+003   1.433000000000E+003   1.422000000000E+003   1.411000000000E+003 
        1.392000000000E+003   1.392000000000E+003   1.392000000000E+003   1.392000000000E+003   1.375000000000E+003   1.375000000000E+003   1.316000000000E+003   1.301000000000E+003   1.300000000000E+003   1.276000000000E+003 
        1.276000000000E+003   1.276000000000E+003   1.275000000000E+003   1.274000000000E+003   1.274000000000E+003   1.277000000000E+003   1.276000000000E+003   1.276000000000E+003   1.275000000000E+003   1.279000000000E+003 
        1.280000000000E+003   1.280000000000E+003   1.280000000000E+003   1.278000000000E+003   1.275000000000E+003   1.258000000000E+003   1.258000000000E+003   1.254000000000E+003   1.232000000000E+003   1.232000000000E+003 
        1.222000000000E+003   1.218000000000E+003   1.216000000000E+003   1.213000000000E+003   1.211000000000E+003   1.204000000000E+003   1.198000000000E+003   1.192000000000E+003   1.190000000000E+003   1.184000000000E+003 
        1.178000000000E+003   1.176000000000E+003   1.165000000000E+003   1.163000000000E+003   1.166000000000E+003   1.157000000000E+003   1.160000000000E+003   1.153000000000E+003   1.150000000000E+003   1.147000000000E+003 
        1.138000000000E+003   1.128000000000E+003   1.118000000000E+003   1.095000000000E+003   1.106000000000E+003   1.102000000000E+003   1.102000000000E+003   1.102000000000E+003   1.102000000000E+003 
        1.297000000000E+003   1.297000000000E+003   1.297000000000E+003   1.297000000000E+003   1.347000000000E+003   1.347000000000E+003   1.347000000000E+003   1.347000000000E+003   1.347000000000E+003   1.347000000000E+003 
        1.347000000000E+003   1.347000000000E+003   1.321000000000E+003   1.321000000000E+003   1.321000000000E+003   1.321000000000E+003   1.321000000000E+003   1.366000000000E+003   1.366000000000E+003   1.366000000000E+003 
        1.366000000000E+003   1.366000000000E+003   1.366000000000E+003   1.366000000000E+003   1.374000000000E+003   1.374000000000E+003   1.392000000000E+003   1.392000000000E+003   1.388000000000E+003   1.388000000000E+003 
        1.425000000000E+003   1.425000000000E+003   1.425000000000E+003   1.425000000000E+003   1.449000000000E+003   1.439000000000E+003   1.439000000000E+003   1.433000000000E+003   1.422000000000E+003   1.411000000000E+003 
        1.392000000000E+003   1.392000000000E+003   1.392000000000E+003   1.375000000000E+003   1.375000000000E+003   1.375000000000E+003   1.316000000000E+003   1.301000000000E+003   1.300000000000E+003   1.276000000000E+003 
        1.276000000000E+003   1.276000000000E+003   1.275000000000E+003   1.274000000000E+003   1.274000000000E+003   1.277000000000E+003   1.276000000000E+003   1.276000000000E+003   1.275000000000E+003   1.279000000000E+003 
        1.284000000000E+003   1.280000000000E+003   1.280000000000E+003   1.278000000000E+003   1.275000000000E+003   1.258000000000E+003   1.258000000000E+003   1.254000000000E+003   1.247000000000E+003   1.243000000000E+003 
        1.238000000000E+003   1.230000000000E+003   1.227000000000E+003   1.222000000000E+003   1.219000000000E+003   1.212000000000E+003   1.207000000000E+003   1.203000000000E+003   1.197000000000E+003   1.196000000000E+003 
        1.192000000000E+003   1.181000000000E+003   1.166000000000E+003   1.177000000000E+003   1.175000000000E+003   1.170000000000E+003   1.163000000000E+003   1.160000000000E+003   1.155000000000E+003   1.148000000000E+003 
        1.144000000000E+003   1.129000000000E+003   1.129000000000E+003   1.116000000000E+003   1.115000000000E+003   1.114000000000E+003   1.114000000000E+003   1.114000000000E+003   1.114000000000E+003 
        1.297000000000E+003   1.297000000000E+003   1.297000000000E+003   1.297000000000E+003   1.347000000000E+003   1.347000000000E+003   1.347000000000E+003   1.347000000000E+003   1.347000000000E+003   1.347000000000E+003 
        1.347000000000E+003   1.347000000000E+003   1.321000000000E+003   1.321000000000E+003   1.321000000000E+003   1.321000000000E+003   1.321000000000E+003   1.321000000000E+003   1.319000000000E+003   1.366000000000E+003 
        1.366000000000E+003   1.366000000000E+003   1.366000000000E+003   1.366000000000E+003   1.366000000000E+003   1.374000000000E+003   1.374000000000E+003   1.392000000000E+003   1.392000000000E+003   1.388000000000E+003 
        1.388000000000E+003   1.425000000000E+003   1.425000000000E+003   1.425000000000E+003   1.449000000000E+003   1.439000000000E+003   1.439000000000E+003   1.433000000000E+003   1.422000000000E+003   1.411000000000E+003 
        1.392000000000E+003   1.392000000000E+003   1.392000000000E+003   1.375000000000E+003   1.375000000000E+003   1.330000000000E+003   1.316000000000E+003   1.301000000000E+003   1.300000000000E+003   1.290000000000E+003 
        1.276000000000E+003   1.276000000000E+003   1.275000000000E+003   1.274000000000E+003   1.274000000000E+003   1.277000000000E+003   1.276000000000E+003   1.276000000000E+003   1.275000000000E+003   1.279000000000E+003 
        1.284000000000E+003   1.287000000000E+003   1.280000000000E+003   1.278000000000E+003   1.275000000000E+003   1.273000000000E+003   1.265000000000E+003   1.261000000000E+003   1.252000000000E+003   1.252000000000E+003 
        1.245000000000E+003   1.240000000000E+003   1.236000000000E+003   1.233000000000E+003   1.226000000000E+003   1.221000000000E+003   1.216000000000E+003   1.211000000000E+003   1.207000000000E+003   1.201000000000E+003 
        1.192000000000E+003   1.185000000000E+003   1.183000000000E+003   1.180000000000E+003   1.181000000000E+003   1.178000000000E+003   1.177000000000E+003   1.170000000000E+003   1.165000000000E+003   1.157000000000E+003 
        1.148000000000E+003   1.142000000000E+003   1.134000000000E+003   1.129000000000E+003   1.131000000000E+003   1.126000000000E+003   1.126000000000E+003   1.126000000000E+003   1.142000000000E+003 
        1.297000000000E+003   1.297000000000E+003   1.297000000000E+003   1.297000000000E+003   1.347000000000E+003   1.347000000000E+003   1.347000000000E+003   1.347000000000E+003   1.347000000000E+003   1.347000000000E+003 
        1.347000000000E+003   1.347000000000E+003   1.345000000000E+003   1.321000000000E+003   1.321000000000E+003   1.321000000000E+003   1.321000000000E+003   1.321000000000E+003   1.321000000000E+003   1.319000000000E+003 
        1.366000000000E+003   1.366000000000E+003   1.366000000000E+003   1.366000000000E+003   1.366000000000E+003   1.366000000000E+003   1.374000000000E+003   1.374000000000E+003   1.392000000000E+003   1.392000000000E+003 
        1.388000000000E+003   1.388000000000E+003   1.425000000000E+003   1.425000000000E+003   1.449000000000E+003   1.450000000000E+003   1.453000000000E+003   1.432000000000E+003   1.414000000000E+003   1.404000000000E+003 
        1.396000000000E+003   1.386000000000E+003   1.377000000000E+003   1.375000000000E+003   1.375000000000E+003   1.330000000000E+003   1.316000000000E+003   1.301000000000E+003   1.300000000000E+003   1.290000000000E+003 
        1.276000000000E+003   1.276000000000E+003   1.275000000000E+003   1.274000000000E+003   1.274000000000E+003   1.277000000000E+003   1.276000000000E+003   1.276000000000E+003   1.275000000000E+003   1.279000000000E+003 
        1.284000000000E+003   1.287000000000E+003   1.294000000000E+003   1.283000000000E+003   1.286000000000E+003   1.276000000000E+003   1.272000000000E+003   1.261000000000E+003   1.258000000000E+003   1.256000000000E+003 
        1.253000000000E+003   1.246000000000E+003   1.241000000000E+003   1.235000000000E+003   1.230000000000E+003   1.227000000000E+003   1.222000000000E+003   1.217000000000E+003   1.212000000000E+003   1.207000000000E+003 
        1.201000000000E+003   1.195000000000E+003   1.192000000000E+003   1.191000000000E+003   1.185000000000E+003   1.186000000000E+003   1.182000000000E+003   1.177000000000E+003   1.168000000000E+003   1.164000000000E+003 
        1.159000000000E+003   1.149000000000E+003   1.142000000000E+003   1.143000000000E+003   1.141000000000E+003   1.137000000000E+003   1.137000000000E+003   1.142000000000E+003   1.142000000000E+003 
        1.297000000000E+003   1.297000000000E+003   1.297000000000E+003   1.297000000000E+003   1.297000000000E+003   1.347000000000E+003   1.347000000000E+003   1.347000000000E+003   1.347000000000E+003   1.347000000000E+003 
        1.347000000000E+003   1.347000000000E+003   1.345000000000E+003   1.321000000000E+003   1.321000000000E+003   1.321000000000E+003   1.321000000000E+003   1.321000000000E+003   1.321000000000E+003   1.321000000000E+003 
        1.319000000000E+003   1.319000000000E+003   1.366000000000E+003   1.366000000000E+003   1.366000000000E+003   1.366000000000E+003   1.366000000000E+003   1.374000000000E+003   1.374000000000E+003   1.392000000000E+003 
        1.392000000000E+003   1.388000000000E+003   1.388000000000E+003   1.412000000000E+003   1.433000000000E+003   1.459000000000E+003   1.480000000000E+003   1.454000000000E+003   1.419000000000E+003   1.401000000000E+003 
        1.389000000000E+003   1.375000000000E+003   1.363000000000E+003   1.354000000000E+003   1.344000000000E+003   1.330000000000E+003   1.316000000000E+003   1.301000000000E+003   1.300000000000E+003   1.290000000000E+003 
        1.283000000000E+003   1.281000000000E+003   1.278000000000E+003   1.279000000000E+003   1.280000000000E+003   1.283000000000E+003   1.280000000000E+003   1.284000000000E+003   1.280000000000E+003   1.284000000000E+003 
        1.286000000000E+003   1.288000000000E+003   1.291000000000E+003   1.289000000000E+003   1.283000000000E+003   1.281000000000E+003   1.276000000000E+003   1.268000000000E+003   1.265000000000E+003   1.261000000000E+003 
        1.258000000000E+003   1.253000000000E+003   1.244000000000E+003   1.239000000000E+003   1.234000000000E+003   1.230000000000E+003   1.229000000000E+003   1.223000000000E+003   1.218000000000E+003   1.216000000000E+003 
        1.209000000000E+003   1.205000000000E+003   1.200000000000E+003   1.194000000000E+003   1.190000000000E+003   1.191000000000E+003   1.186000000000E+003   1.182000000000E+003   1.176000000000E+003   1.169000000000E+003 
        1.164000000000E+003   1.160000000000E+003   1.156000000000E+003   1.152000000000E+003   1.148000000000E+003   1.145000000000E+003   1.142000000000E+003   1.142000000000E+003   1.142000000000E+003 
        1.297000000000E+003   1.297000000000E+003   1.297000000000E+003   1.297000000000E+003   1.297000000000E+003   1.347000000000E+003   1.347000000000E+003   1.347000000000E+003   1.347000000000E+003   1.347000000000E+003 
        1.347000000000E+003   1.347000000000E+003   1.345000000000E+003   1.337000000000E+003   1.321000000000E+003   1.321000000000E+003   1.321000000000E+003   1.321000000000E+003   1.321000000000E+003   1.321000000000E+003 
        1.321000000000E+003   1.319000000000E+003   1.319000000000E+003   1.366000000000E+003   1.366000000000E+003   1.366000000000E+003   1.366000000000E+003   1.366000000000E+003   1.374000000000E+003   1.374000000000E+003 
        1.392000000000E+003   1.392000000000E+003   1.417000000000E+003   1.438000000000E+003   1.444000000000E+003   1.483000000000E+003   1.486000000000E+003   1.460000000000E+003   1.439000000000E+003   1.408000000000E+003 
        1.393000000000E+003   1.371000000000E+003   1.358000000000E+003   1.344000000000E+003   1.338000000000E+003   1.324000000000E+003   1.315000000000E+003   1.305000000000E+003   1.296000000000E+003   1.288000000000E+003 
        1.281000000000E+003   1.277000000000E+003   1.273000000000E+003   1.284000000000E+003   1.290000000000E+003   1.290000000000E+003   1.292000000000E+003   1.287000000000E+003   1.289000000000E+003   1.288000000000E+003 
        1.285000000000E+003   1.287000000000E+003   1.287000000000E+003   1.287000000000E+003   1.285000000000E+003   1.281000000000E+003   1.275000000000E+003   1.270000000000E+003   1.263000000000E+003   1.263000000000E+003 
        1.262000000000E+003   1.255000000000E+003   1.249000000000E+003   1.245000000000E+003   1.241000000000E+003   1.236000000000E+003   1.233000000000E+003   1.229000000000E+003   1.224000000000E+003   1.219000000000E+003 
        1.214000000000E+003   1.212000000000E+003   1.208000000000E+003   1.201000000000E+003   1.198000000000E+003   1.192000000000E+003   1.192000000000E+003   1.187000000000E+003   1.178000000000E+003   1.177000000000E+003 
        1.171000000000E+003   1.161000000000E+003   1.160000000000E+003   1.160000000000E+003   1.159000000000E+003   1.152000000000E+003   1.150000000000E+003   1.150000000000E+003   1.150000000000E+003 
        1.297000000000E+003   1.297000000000E+003   1.297000000000E+003   1.297000000000E+003   1.297000000000E+003   1.347000000000E+003   1.347000000000E+003   1.347000000000E+003   1.347000000000E+003   1.347000000000E+003 
        1.347000000000E+003   1.347000000000E+003   1.345000000000E+003   1.337000000000E+003   1.336000000000E+003   1.321000000000E+003   1.321000000000E+003   1.321000000000E+003   1.321000000000E+003   1.321000000000E+003 
        1.321000000000E+003   1.321000000000E+003   1.319000000000E+003   1.319000000000E+003   1.322000000000E+003   1.366000000000E+003   1.366000000000E+003   1.366000000000E+003   1.366000000000E+003   1.374000000000E+003 
        1.374000000000E+003   1.393000000000E+003   1.410000000000E+003   1.433000000000E+003   1.467000000000E+003   1.481000000000E+003   1.484000000000E+003   1.464000000000E+003   1.447000000000E+003   1.420000000000E+003 
        1.391000000000E+003   1.365000000000E+003   1.351000000000E+003   1.338000000000E+003   1.326000000000E+003   1.316000000000E+003   1.307000000000E+003   1.296000000000E+003   1.293000000000E+003   1.288000000000E+003 
        1.278000000000E+003   1.279000000000E+003   1.280000000000E+003   1.292000000000E+003   1.288000000000E+003   1.290000000000E+003   1.293000000000E+003   1.290000000000E+003   1.291000000000E+003   1.288000000000E+003 
        1.286000000000E+003   1.286000000000E+003   1.285000000000E+003   1.285000000000E+003   1.283000000000E+003   1.281000000000E+003   1.278000000000E+003   1.281000000000E+003   1.268000000000E+003   1.266000000000E+003 
        1.265000000000E+003   1.260000000000E+003   1.251000000000E+003   1.250000000000E+003   1.244000000000E+003   1.239000000000E+003   1.235000000000E+003   1.231000000000E+003   1.224000000000E+003   1.225000000000E+003 
        1.223000000000E+003   1.218000000000E+003   1.215000000000E+003   1.207000000000E+003   1.208000000000E+003   1.203000000000E+003   1.200000000000E+003   1.194000000000E+003   1.188000000000E+003   1.181000000000E+003 
        1.178000000000E+003   1.173000000000E+003   1.169000000000E+003   1.167000000000E+003   1.162000000000E+003   1.157000000000E+003   1.155000000000E+003   1.155000000000E+003   1.155000000000E+003 
        1.297000000000E+003   1.297000000000E+003   1.297000000000E+003   1.297000000000E+003   1.297000000000E+003   1.297000000000E+003   1.347000000000E+003   1.347000000000E+003   1.347000000000E+003   1.347000000000E+003 
        1.347000000000E+003   1.347000000000E+003   1.345000000000E+003   1.337000000000E+003   1.336000000000E+003   1.336000000000E+003   1.321000000000E+003   1.321000000000E+003   1.321000000000E+003   1.321000000000E+003 
        1.321000000000E+003   1.321000000000E+003   1.321000000000E+003   1.319000000000E+003   1.319000000000E+003   1.322000000000E+003   1.322000000000E+003   1.366000000000E+003   1.366000000000E+003   1.366000000000E+003 
        1.405000000000E+003   1.387000000000E+003   1.395000000000E+003   1.430000000000E+003   1.461000000000E+003   1.477000000000E+003   1.468000000000E+003   1.452000000000E+003   1.442000000000E+003   1.419000000000E+003 
        1.388000000000E+003   1.369000000000E+003   1.346000000000E+003   1.331000000000E+003   1.328000000000E+003   1.313000000000E+003   1.304000000000E+003   1.293000000000E+003   1.288000000000E+003   1.280000000000E+003 
        1.277000000000E+003   1.281000000000E+003   1.284000000000E+003   1.285000000000E+003   1.288000000000E+003   1.292000000000E+003   1.293000000000E+003   1.290000000000E+003   1.291000000000E+003   1.287000000000E+003 
        1.284000000000E+003   1.283000000000E+003   1.284000000000E+003   1.283000000000E+003   1.281000000000E+003   1.278000000000E+003   1.276000000000E+003   1.270000000000E+003   1.266000000000E+003   1.265000000000E+003 
        1.263000000000E+003   1.259000000000E+003   1.252000000000E+003   1.251000000000E+003   1.246000000000E+003   1.242000000000E+003   1.238000000000E+003   1.234000000000E+003   1.233000000000E+003   1.229000000000E+003 
        1.223000000000E+003   1.218000000000E+003   1.218000000000E+003   1.218000000000E+003   1.213000000000E+003   1.211000000000E+003   1.205000000000E+003   1.201000000000E+003   1.192000000000E+003   1.188000000000E+003 
        1.181000000000E+003   1.178000000000E+003   1.174000000000E+003   1.172000000000E+003   1.172000000000E+003   1.162000000000E+003   1.160000000000E+003   1.160000000000E+003   1.160000000000E+003 
        1.297000000000E+003   1.297000000000E+003   1.297000000000E+003   1.297000000000E+003   1.297000000000E+003   1.297000000000E+003   1.347000000000E+003   1.347000000000E+003   1.347000000000E+003   1.347000000000E+003 
        1.347000000000E+003   1.347000000000E+003   1.345000000000E+003   1.337000000000E+003   1.336000000000E+003   1.331000000000E+003   1.336000000000E+003   1.336000000000E+003   1.321000000000E+003   1.321000000000E+003 
        1.321000000000E+003   1.321000000000E+003   1.321000000000E+003   1.321000000000E+003   1.319000000000E+003   1.319000000000E+003   1.322000000000E+003   1.322000000000E+003   1.345000000000E+003   1.345000000000E+003 
        1.385000000000E+003   1.381000000000E+003   1.389000000000E+003   1.413000000000E+003   1.431000000000E+003   1.462000000000E+003   1.445000000000E+003   1.432000000000E+003   1.420000000000E+003   1.406000000000E+003 
        1.388000000000E+003   1.366000000000E+003   1.352000000000E+003   1.332000000000E+003   1.315000000000E+003   1.298000000000E+003   1.292000000000E+003   1.285000000000E+003   1.282000000000E+003   1.283000000000E+003 
        1.281000000000E+003   1.283000000000E+003   1.285000000000E+003   1.287000000000E+003   1.286000000000E+003   1.288000000000E+003   1.292000000000E+003   1.298000000000E+003   1.288000000000E+003   1.287000000000E+003 
        1.286000000000E+003   1.282000000000E+003   1.279000000000E+003   1.278000000000E+003   1.276000000000E+003   1.276000000000E+003   1.270000000000E+003   1.268000000000E+003   1.262000000000E+003   1.265000000000E+003 
        1.260000000000E+003   1.256000000000E+003   1.254000000000E+003   1.253000000000E+003   1.248000000000E+003   1.244000000000E+003   1.244000000000E+003   1.240000000000E+003   1.235000000000E+003   1.233000000000E+003 
        1.229000000000E+003   1.224000000000E+003   1.223000000000E+003   1.231000000000E+003   1.215000000000E+003   1.211000000000E+003   1.208000000000E+003   1.207000000000E+003   1.200000000000E+003   1.194000000000E+003 
        1.188000000000E+003   1.184000000000E+003   1.179000000000E+003   1.181000000000E+003   1.178000000000E+003   1.168000000000E+003   1.168000000000E+003   1.168000000000E+003   1.168000000000E+003 
        1.297000000000E+003   1.297000000000E+003   1.297000000000E+003   1.297000000000E+003   1.297000000000E+003   1.297000000000E+003   1.347000000000E+003   1.347000000000E+003   1.347000000000E+003   1.347000000000E+003 
        1.347000000000E+003   1.347000000000E+003   1.345000000000E+003   1.337000000000E+003   1.336000000000E+003   1.331000000000E+003   1.336000000000E+003   1.336000000000E+003   1.336000000000E+003   1.336000000000E+003 
        1.321000000000E+003   1.321000000000E+003   1.321000000000E+003   1.321000000000E+003   1.321000000000E+003   1.319000000000E+003   1.319000000000E+003   1.322000000000E+003   1.322000000000E+003   1.345000000000E+003 
        1.356000000000E+003   1.368000000000E+003   1.384000000000E+003   1.392000000000E+003   1.410000000000E+003   1.425000000000E+003   1.449000000000E+003   1.425000000000E+003   1.408000000000E+003   1.392000000000E+003 
        1.379000000000E+003   1.365000000000E+003   1.350000000000E+003   1.330000000000E+003   1.308000000000E+003   1.293000000000E+003   1.285000000000E+003   1.285000000000E+003   1.289000000000E+003   1.282000000000E+003 
        1.284000000000E+003   1.283000000000E+003   1.283000000000E+003   1.286000000000E+003   1.289000000000E+003   1.288000000000E+003   1.288000000000E+003   1.289000000000E+003   1.288000000000E+003   1.287000000000E+003 
        1.279000000000E+003   1.272000000000E+003   1.275000000000E+003   1.274000000000E+003   1.273000000000E+003   1.271000000000E+003   1.265000000000E+003   1.261000000000E+003   1.260000000000E+003   1.260000000000E+003 
        1.255000000000E+003   1.252000000000E+003   1.252000000000E+003   1.250000000000E+003   1.245000000000E+003   1.246000000000E+003   1.244000000000E+003   1.239000000000E+003   1.235000000000E+003   1.234000000000E+003 
        1.230000000000E+003   1.229000000000E+003   1.229000000000E+003   1.225000000000E+003   1.222000000000E+003   1.215000000000E+003   1.210000000000E+003   1.213000000000E+003   1.206000000000E+003   1.196000000000E+003 