# File generated by Flopy version 3.3.4 on 03/06/2022 at 22:12:53.
BEGIN options
END options

BEGIN timing
  TDIS6  transient.tdis
END timing

BEGIN models
  gwf6  transient.nam  transient
END models

BEGIN exchanges
END exchanges

BEGIN solutiongroup  1
  ims6  transient.ims  transient
END solutiongroup  1

