# File generated by Flopy version 3.3.4 on 03/29/2022 at 11:20:57.
BEGIN options
  BUDGET  FILEOUT  transient.cbc
  HEAD  FILEOUT  transient.hds
END options

BEGIN period  1
  SAVE  HEAD  LAST
  SAVE  BUDGET  LAST
  PRINT  HEAD  LAST
  PRINT  BUDGET  LAST
END period  1

