# File generated by Flopy version 3.3.4 on 03/29/2022 at 11:20:54.
BEGIN options
  PRINT_OPTION  summary
  COMPLEXITY  complex
END options

BEGIN nonlinear
  OUTER_DVCLOSE       0.50000000
  OUTER_MAXIMUM  1000
END nonlinear

BEGIN linear
  INNER_MAXIMUM  1000
  INNER_DVCLOSE       0.50000000
  inner_rclose       0.50000000  infinity-norm
END linear

