# File generated by Flopy version 3.3.4 on 03/29/2022 at 11:20:57.
BEGIN griddata
  strt  LAYERED
    INTERNAL  FACTOR  1.0
      777.339
      774.829
      779.463
      784.808
      776.872
      781.271
      783.263
      782.762
      780.780
      782.282
      777.547
      779.345
    INTERNAL  FACTOR  1.0
      777.339
      774.829
      779.463
      784.474
      776.872
      781.271
      784.100
      783.567
      781.711
      783.301
      778.844
      779.769
END griddata

