BEGIN options
  SAVE_FLOWS
  MOVER
  UNIT_CONVERSION   86400.00000000
END options

BEGIN dimensions
  NREACHES  1
END dimensions

BEGIN packagedata
  1	1	2	20	10	0.00704	760.5	0.6	0.01	0.035	0	1	0
END packagedata

BEGIN connectiondata
 1
END connectiondata

