BEGIN options
  SAVE_FLOWS
  SAVE_SPECIFIC_DISCHARGE
END options

BEGIN griddata
  icelltype
    CONSTANT  1
  k  
    CONSTANT  0.1
  k33
    CONSTANT  0.01
END griddata
