# File created by hand from Mostafa's regional-scale model
# Attempting to recreate mass budget error that occurs in MVR
# using select cells.
BEGIN options
  LENGTH_UNITS  meters
END options

BEGIN dimensions
  NLAY 2
  NCPL 12
  NVERT 38
END dimensions

BEGIN griddata
  top
    INTERNAL  FACTOR  1.0
      777.488
      774.996
      781.849
      785.457
      778.249
      782.169
      783.367
      782.881
      780.896
      782.414
      777.598
      779.499
  botm LAYERED
    INTERNAL  FACTOR  1.0
      767.49
      765.00
      761.85
      773.41
      778.25
      762.17
      769.10
      768.19
      769.04
      770.98
      762.70
      759.76
    INTERNAL  FACTOR  1.0
      747.49
      745.00
      751.85
      743.41
      748.25
      752.17
      739.10
      738.19
      739.04
      740.98
      732.70
      729.76
  idomain  LAYERED
    INTERNAL  FACTOR  1
       1
       1
       1
       1
       1
       1
       1
       1
       1
       1
       1
       1
    CONSTANT  1
END griddata

BEGIN vertices
   1  737228.7800  4557478.3000
   2  737256.5760  4557421.6300
   3  737073.4490  4557520.0000
   4  737155.7450  4557657.8000
   5  737169.2520  4557328.5000
   6  737077.4640  4557351.3900
   7  737035.1630  4557507.2400
   8  737021.0510  4557511.4900
   9  736995.1640  4557544.3800
  10  737004.6310  4557748.4100
  11  737046.3110  4557750.7100
  12  737190.2080  4557257.3800
  13  737018.3050  4557290.8800
  14  737041.8040  4557192.6500
  15  736931.6210  4557092.7300
  16  736908.6290  4557111.4400
  17  736851.9660  4557307.6600
  18  736856.7170  4557325.7100
  19  737114.9170  4557175.5500
  20  736852.7590  4557337.6100
  21  736858.7780  4557370.4000
  22  737153.8280  4557099.0300
  23  737116.3850  4557010.0300
  24  736995.4510  4557008.5100
  25  736937.6430  4557066.7300
  26  736700.9680  4557513.2300
  27  736648.1190  4557365.8200
  28  736611.0080  4557343.0600
  29  736782.6820  4557512.3600
  30  736845.1900  4557593.4800
  31  736708.4800  4557188.7700
  32  736607.3000  4557335.1400
  33  736506.7420  4557272.1600
  34  736698.3190  4557115.0800
  35  736666.8790  4557078.7600
  36  736663.0730  4557077.4100
  37  736516.7020  4557145.2100
  38  736803.9880  4556945.9100
END vertices

BEGIN cell2d
   1  736945.6110  4557221.7000  6  13  14  15  16  17  18
   2  737049.3670  4557092.0400  7  14  19  22  23  24  25  15
   3  737140.2180  4557428.0300  6   3   1   2   5   6   7
   4  737058.0980  4557630.9300  7   4   3   7   8   9  10  11
   5  737101.5610  4557265.4300  6  14  13   6   5  12  19
   6  736977.7410  4557383.8400  7   6  13  18  20  21   8   7
   7  736753.5370  4557419.7500  5  27  26  29  21  20
   8  736890.2290  4557495.6000  5  21  29  30   9   8
   9  736726.7700  4557295.8400  7  27  20  18  17  31  32  28
  10  736605.5150  4557200.5700  7  32  31  34  35  36  37  33
  11  736807.2470  4557182.8500  4  31  17  16  34
  12  736805.0780  4557053.1200  6  16  15  25  38  35  34
END cell2d