BEGIN options
  NEWTON  UNDER_RELAXATION
END options

BEGIN packages
  DISV6  transient.disv  disv
  NPF6  transient.npf  npf
  IC6  transient.ic  ic
  STO6  transient.sto  sto
  UZF6  transient.uzf  uzf
  SFR6  transient.sfr  sfr
  MVR6  transient.mvr  mvr
  OC6  transient.oc  oc
END packages

