# File generated by Flopy version 3.3.4 on 06/28/2022 at 17:20:38.
BEGIN options
  SAVE_FLOWS
END options

BEGIN dimensions
  MAXBOUND  3623
END dimensions

BEGIN period  1
    OPEN/CLOSE  '.\wells_rates.txt'
END period  1

