# File generated by Flopy version 3.3.4 on 06/28/2022 at 17:20:38.
BEGIN options
END options

BEGIN continuous  FILEOUT  obs_simulated_heads.csv
    OPEN/CLOSE  '.\obs_heads.txt'
END continuous  FILEOUT  obs_simulated_heads.csv

